2I4J_DRJ_116
  DSViewer          3D                             0

 68 70  0  0  0  0  0  0  0  0999 V2000
   22.4849   20.4652   21.0476 C   0  0
   22.1921   19.3917   20.0060 C   0  0
   20.7056   19.2284   19.5812 C   0  0  1  0  0  0
   19.9713   18.7599   20.8809 C   0  0
   20.2753   17.6179   21.3350 O   0  5
   19.1707   19.6061   21.3879 O   0  0
   20.1979   20.5382   18.9658 C   0  0
   20.7631   18.1854   18.5655 O   0  0
   19.6448   17.7412   17.9260 C   0  0
   18.3285   17.8631   18.3588 C   0  0
   17.2769   17.3555   17.5880 C   0  0
   19.8997   17.0831   16.7203 C   0  0
   18.8553   16.5844   15.9397 C   0  0
   17.5308   16.7199   16.3680 C   0  0
   16.3993   16.2274   15.5045 C   0  0
   15.6971   17.3909   14.7934 C   0  0
   14.9167   16.9298   13.6464 N   0  0
   13.5014   16.6463   13.8094 C   0  0
   13.2560   15.1518   14.0334 C   0  0
   11.7646   14.8535   14.1972 C   0  0
   11.5174   13.3617   14.4280 C   0  0
   10.0263   13.0644   14.5943 C   0  0
    9.7789   11.5745   14.8291 C   0  0
    8.2975   11.2755   14.9955 C   0  0
   15.5127   16.7285   12.4487 C   0  0
   16.8699   16.9159   12.3982 O   0  0
   17.2014   16.6460   11.1108 C   0  0
   18.4694   16.6931   10.5439 C   0  0
   18.5350   16.3693    9.1840 C   0  0
   17.3838   16.0232    8.4602 C   0  0
   16.1209   15.9876    9.0740 C   0  0
   16.0412   16.3095   10.4351 C   0  0
   14.9736   16.3632   11.2958 N   0  0
   23.5526   20.4606   21.2915 H   0  0
   21.9347   20.2919   21.9766 H   0  0
   22.2409   21.4648   20.6777 H   0  0
   22.7944   19.6049   19.1119 H   0  0
   22.5797   18.4323   20.3753 H   0  0
   19.1641   20.4528   18.6181 H   0  0
   20.7977   20.8153   18.0915 H   0  0
   20.2174   21.3682   19.6786 H   0  0
   18.0803   18.3387   19.3018 H   0  0
   16.2618   17.4666   17.9616 H   0  0
   20.9274   16.9701   16.3861 H   0  0
   19.0861   16.0958   14.9969 H   0  0
   16.7838   15.4980   14.7806 H   0  0
   15.6829   15.6760   16.1257 H   0  0
   15.0475   17.9136   15.5076 H   0  0
   16.4233   18.1494   14.4701 H   0  0
   13.0981   17.2119   14.6586 H   0  0
   12.9404   16.9915   12.9311 H   0  0
   13.6535   14.5743   13.1899 H   0  0
   13.7955   14.8156   14.9263 H   0  0
   11.3662   15.4266   15.0432 H   0  0
   11.2240   15.1810   13.3008 H   0  0
   11.9144   12.7882   13.5815 H   0  0
   12.0595   13.0339   15.3234 H   0  0
    9.6289   13.6402   15.4391 H   0  0
    9.4845   13.3902   13.6980 H   0  0
   10.1703   10.9944   13.9854 H   0  0
   10.3153   11.2447   15.7264 H   0  0
    8.1433   10.2048   15.1616 H   0  0
    7.7360   11.5651   14.1015 H   0  0
    7.8821   11.8155   15.8524 H   0  0
   19.3349   16.9643   11.1399 H   0  0
   19.4974   16.3855    8.6747 H   0  0
   17.4695   15.7770    7.4038 H   0  0
   15.2293   15.7204    8.5191 H   0  0
  1  2  1  0  0  0
  1 34  1  0  0  0
  1 35  1  0  0  0
  1 36  1  0  0  0
  2  3  1  0  0  0
  2 37  1  0  0  0
  2 38  1  0  0  0
  3  4  1  0  0  0
  3  7  1  0  0  0
  3  8  1  0  0  0
  4  5  1  0  0  0
  4  6  2  0  0  0
  7 39  1  0  0  0
  7 40  1  0  0  0
  7 41  1  0  0  0
  8  9  1  0  0  0
  9 10  2  0  0  0
  9 12  1  0  0  0
 10 11  1  0  0  0
 10 42  1  0  0  0
 11 14  2  0  0  0
 11 43  1  0  0  0
 12 13  2  0  0  0
 12 44  1  0  0  0
 13 14  1  0  0  0
 13 45  1  0  0  0
 14 15  1  0  0  0
 15 16  1  0  0  0
 15 46  1  0  0  0
 15 47  1  0  0  0
 16 17  1  0  0  0
 16 48  1  0  0  0
 16 49  1  0  0  0
 17 18  1  0  0  0
 17 25  1  0  0  0
 18 19  1  0  0  0
 18 50  1  0  0  0
 18 51  1  0  0  0
 19 20  1  0  0  0
 19 52  1  0  0  0
 19 53  1  0  0  0
 20 21  1  0  0  0
 20 54  1  0  0  0
 20 55  1  0  0  0
 21 22  1  0  0  0
 21 56  1  0  0  0
 21 57  1  0  0  0
 22 23  1  0  0  0
 22 58  1  0  0  0
 22 59  1  0  0  0
 23 24  1  0  0  0
 23 60  1  0  0  0
 23 61  1  0  0  0
 24 62  1  0  0  0
 24 63  1  0  0  0
 24 64  1  0  0  0
 25 26  1  0  0  0
 25 33  2  0  0  0
 26 27  1  0  0  0
 27 28  2  0  0  0
 27 32  1  0  0  0
 28 29  1  0  0  0
 28 65  1  0  0  0
 29 30  2  0  0  0
 29 66  1  0  0  0
 30 31  1  0  0  0
 30 67  1  0  0  0
 31 32  2  0  0  0
 31 68  1  0  0  0
 32 33  1  0  0  0
M  CHG  1   5  -1
M  END
> <Forcefield>
MMFF

> <ForcefieldBase>
MMFF

> <ForcefieldFFML>
<?xml version="1.0" encoding="UTF-8"?>
<!DOCTYPE ffml SYSTEM "Ffml.dtd">
<ffml version="1.0">
<forcefield name="MMFF" derivedFrom="MMFF" base="MMFF">
<atomTypes>
<atomType
name="C100"
element="C"
mass="12.011"
annotation=""/>
<atomType
name="O101"
element="O"
mass="16"
annotation=""/>
<atomType
name="N102"
element="N"
mass="14.007"
annotation=""/>
<atomType
name="H103"
element="H"
mass="1.008"
annotation=""/>
</atomTypes>
<parameters>
</parameters>
</forcefield>
</ffml>

> <Initial Potential Energy>
99.1124

> <Initial RMS Gradient>
11.3047

> <Minimization Criteria>
 CONJUG> Minimization exiting with gradient tolerance ( 0.0100000) satisfied.

> <CHARMm Energy>
66.2057

> <Potential Energy>
66.2057

> <RMS Gradient>
0.00934

> <Bond Energy>
6.23422

> <Angle Energy>
21.1612

> <STRBend>
0.60992

> <Dihedral Energy>
-8.03086

> <OOPLane>
0.09226

> <Van der Waals Energy>
55.4608

> <Electrostatic Energy>
-9.3218

> <Hydrogen Bond Energy>
0

> <Solvation Free Energy>
0

> <HasGasteigerCharges>
true

$$$$
2Q8S_L92_102
  SciTegic05202517373D

 58 61  0  0  0  0            999 V2000
   19.0331   61.8928   20.0044 O   0  5
   19.8101   61.7255   19.0118 C   0  0
   20.8550   61.0067   18.9850 O   0  0
   19.3823   62.4426   17.7270 C   0  0  1  0  0  0
   20.1014   63.7091   17.5907 N   0  0
   21.4501   63.8626   17.3731 C   0  0
   21.7080   65.2018   17.1809 C   0  0
   20.4793   65.8909   17.3037 C   0  0
   19.5050   64.9503   17.5531 C   0  0
   19.5102   61.5400   16.4909 C   0  0
   18.5734   61.9550   15.3664 C   0  0
   18.8874   63.0280   14.5247 C   0  0
   17.9850   63.4518   13.5445 C   0  0
   16.7589   62.7978   13.3700 C   0  0
   16.4507   61.7149   14.2025 C   0  0
   17.3466   61.3034   15.1929 C   0  0
   15.7763   63.2727   12.3285 C   0  0
   15.5469   62.2811   11.1795 C   0  0
   16.7965   61.9649   10.3566 C   0  0
   17.3753   63.1806    9.6925 C   0  0
   18.8489   63.4708    9.7133 C   0  0  1  0  0  0
   19.6887   62.3544    9.1280 C   0  0
   18.9126   64.6166    8.8356 O   0  0
   17.5845   65.0210    8.7318 C   0  0
   16.6688   64.0460    9.0344 N   0  0
   17.2623   66.3189    8.5329 C   0  0
   15.8629   66.7505    8.5518 C   0  0
   15.5535   68.0575    8.5461 C   0  0
   16.5940   69.1463    8.5049 C   0  0
   18.0033   68.6319    8.3691 C   0  0
   18.3109   67.3250    8.3605 C   0  0
   18.3223   62.7066   17.8560 H   0  0
   22.1066   63.0019   17.3772 H   0  0
   22.6803   65.6312   16.9876 H   0  0
   20.3215   66.9574   17.2307 H   0  0
   18.4412   65.0504   17.7225 H   0  0
   20.5360   61.5200   16.1020 H   0  0
   19.2821   60.5001   16.7606 H   0  0
   19.8259   63.5641   14.6541 H   0  0
   18.2427   64.3166   12.9382 H   0  0
   15.4998   61.1963   14.1071 H   0  0
   17.0730   60.4793   15.8486 H   0  0
   14.8179   63.4638   12.8288 H   0  0
   16.0929   64.2432   11.9276 H   0  0
   15.1450   61.3406   11.5753 H   0  0
   14.7720   62.6939   10.5213 H   0  0
   17.5595   61.4969   10.9866 H   0  0
   16.5436   61.2481    9.5672 H   0  0
   20.7276   62.6795    9.0085 H   0  0
   19.3284   62.0677    8.1335 H   0  0
   19.6719   61.4651    9.7650 H   0  0
   15.0826   65.9964    8.5958 H   0  0
   14.5131   68.3638    8.5825 H   0  0
   16.3788   69.8022    7.6536 H   0  0
   16.5179   69.7497    9.4161 H   0  0
   18.7938   69.3688    8.2644 H   0  0
   19.3420   67.0061    8.2445 H   0  0
   19.1792   63.7585   10.7150 H   0  0
  1  2  1  0
  2  3  2  0
  2  4  1  0
  4  5  1  0
  4 10  1  0
  4 32  1  0
  5  6  1  0
  5  9  1  0
  6  7  2  0
  6 33  1  0
  7  8  1  0
  7 34  1  0
  8  9  2  0
  8 35  1  0
  9 36  1  0
 10 11  1  0
 10 37  1  0
 10 38  1  0
 11 12  2  0
 11 16  1  0
 12 13  1  0
 12 39  1  0
 13 14  2  0
 13 40  1  0
 14 15  1  0
 14 17  1  0
 15 16  2  0
 15 41  1  0
 16 42  1  0
 17 18  1  0
 17 43  1  0
 17 44  1  0
 18 19  1  0
 18 45  1  0
 18 46  1  0
 19 20  1  0
 19 47  1  0
 19 48  1  0
 20 21  1  0
 20 25  2  0
 21 22  1  0
 21 23  1  0
 21 58  1  0
 22 49  1  0
 22 50  1  0
 22 51  1  0
 23 24  1  0
 24 25  1  0
 24 26  2  0
 26 27  1  0
 26 31  1  0
 27 28  2  0
 27 52  1  0
 28 29  1  0
 28 53  1  0
 29 30  1  0
 29 54  1  0
 29 55  1  0
 30 31  2  0
 30 56  1  0
 31 57  1  0
M  CHG  1   1  -1
M  END
> <Name>
2Q8S_L92_102

> <Forcefield>
MMFF

> <ForcefieldBase>
MMFF

> <ForcefieldFFML>
<?xml version="1.0" encoding="UTF-8"?>
<!DOCTYPE ffml SYSTEM "Ffml.dtd">
<ffml version="1.0">
<forcefield name="MMFF" derivedFrom="MMFF" base="MMFF">
<atomTypes>
<atomType
name="O100"
element="O"
mass="16"
annotation=""/>
<atomType
name="C101"
element="C"
mass="12.011"
annotation=""/>
<atomType
name="N102"
element="N"
mass="14.007"
annotation=""/>
<atomType
name="H103"
element="H"
mass="1.008"
annotation=""/>
</atomTypes>
<parameters>
</parameters>
</forcefield>
</ffml>

> <REMARK99>
REMARK  99  MacroMolecule created from Mol2 file
REMARK  99  2Q8S L92 102
REMARK  99  PROTEIN
REMARK  99  USER_CHARGES
REMARK  99
REMARK  99

> <Initial Potential Energy>
176.453796386719

> <Initial RMS Gradient>
28.1712894439697

> <Minimization Criteria>
 STEEPD> Minimization exiting with gradient tolerance ( 3.0000000) satisfied.

> <CHARMm Energy>
63.2766304016113

> <Potential Energy>
63.2766304016113

> <RMS Gradient>
0.0835599973797798

> <Bond Energy>
5.3569598197937

> <Angle Energy>
12.4702301025391

> <STRBend>
0.0537099987268448

> <Dihedral Energy>
-1.8398699760437

> <OOPLane>
0.192300006747246

> <Van der Waals Energy>
42.966438293457

> <Electrostatic Energy>
4.07684993743896

> <Hydrogen Bond Energy>
0

> <Solvation Free Energy>
0

> <HasGasteigerCharges>
true

$$$$
2Q59_240_97
  SciTegic05202517373D

 61 64  0  0  0  0            999 V2000
  -16.8085   20.4763  -19.6731 O   0  0
  -18.0238   20.7534  -19.4495 C   0  0
  -19.0281   20.6010  -20.2234 O   0  5
  -18.3866   21.3945  -18.0923 C   0  0  2  0  0  0
  -18.1718   22.8911  -18.2803 C   0  0
  -17.5278   20.9734  -17.0207 O   0  0
  -17.7722   19.7604  -16.4314 C   0  0
  -18.5679   18.7538  -16.9895 C   0  0
  -18.7640   17.5504  -16.3136 C   0  0
  -18.1656   17.3466  -15.0770 C   0  0
  -17.3674   18.3456  -14.5146 C   0  0
  -17.1409   19.5648  -15.1831 C   0  0
  -16.3595   20.7357  -14.6038 C   0  0
  -15.3854   20.2492  -13.5739 C   0  0
  -14.0412   19.9666  -13.7558 C   0  0
  -13.2173   20.2589  -14.9683 C   0  0
  -15.6453   20.1090  -12.1819 C   0  0
  -16.7963   20.3537  -11.4068 C   0  0
  -16.7880   20.1227  -10.0309 C   0  0
  -17.8598   20.3173   -9.1986 O   0  0
  -19.0998   20.6194   -9.8440 C   0  0
  -20.0477   20.7095   -8.8716 F   0  0
  -19.0545   21.8091  -10.4786 F   0  0
  -19.4729   19.6434  -10.6960 F   0  0
  -15.6189   19.6615   -9.4235 C   0  0
  -14.4618   19.3952  -10.1732 C   0  0
  -14.4940   19.6228  -11.5670 C   0  0
  -13.5622   19.3719  -12.5865 N   0  0
  -12.3659   18.6319  -12.4311 C   0  0
  -11.8899   18.5443  -11.2984 O   0  0
  -11.6396   17.9184  -13.5095 C   0  0
  -10.2419   17.8448  -13.4483 C   0  0
   -9.5433   17.2124  -14.4758 C   0  0
  -12.3267   17.2757  -14.5462 C   0  0
  -11.6173   16.6547  -15.5775 C   0  0
  -10.2229   16.6490  -15.5597 C   0  0
   -9.4280   16.0958  -16.5254 O   0  0
  -10.0328   15.9748  -17.8143 C   0  0
  -19.4380   21.2220  -17.8298 H   0  0
  -18.4178   23.4280  -17.3576 H   0  0
  -18.7910   23.2908  -19.0900 H   0  0
  -17.1227   23.1183  -18.5034 H   0  0
  -19.0424   18.8737  -17.9601 H   0  0
  -19.3869   16.7806  -16.7613 H   0  0
  -18.3216   16.4127  -14.5452 H   0  0
  -16.9332   18.1462  -13.5403 H   0  0
  -15.8058   21.2611  -15.3897 H   0  0
  -17.0631   21.4519  -14.1639 H   0  0
  -12.1462   20.2780  -14.7517 H   0  0
  -13.4638   21.2534  -15.3570 H   0  0
  -13.4206   19.5365  -15.7635 H   0  0
  -17.6709   20.7197  -11.9332 H   0  0
  -15.5967   19.4833   -8.3501 H   0  0
  -13.5723   19.0111   -9.6802 H   0  0
   -9.6942   18.2807  -12.6121 H   0  0
   -8.4574   17.1697  -14.4356 H   0  0
  -13.4148   17.2634  -14.5777 H   0  0
  -12.1749   16.1820  -16.3812 H   0  0
   -9.2400   15.7374  -18.5302 H   0  0
  -10.4993   16.9137  -18.1322 H   0  0
  -10.7508   15.1487  -17.8285 H   0  0
  1  2  2  0
  2  3  1  0
  2  4  1  0
  4  5  1  0
  4  6  1  0
  4 39  1  0
  5 40  1  0
  5 41  1  0
  5 42  1  0
  6  7  1  0
  7  8  2  0
  7 12  1  0
  8  9  1  0
  8 43  1  0
  9 10  2  0
  9 44  1  0
 10 11  1  0
 10 45  1  0
 11 12  2  0
 11 46  1  0
 12 13  1  0
 13 14  1  0
 13 47  1  0
 13 48  1  0
 14 15  2  0
 14 17  1  0
 15 16  1  0
 15 28  1  0
 16 49  1  0
 16 50  1  0
 16 51  1  0
 17 18  2  0
 17 27  1  0
 18 19  1  0
 18 52  1  0
 19 20  1  0
 19 25  2  0
 20 21  1  0
 21 22  1  0
 21 23  1  0
 21 24  1  0
 25 26  1  0
 25 53  1  0
 26 27  2  0
 26 54  1  0
 27 28  1  0
 28 29  1  0
 29 30  2  0
 29 31  1  0
 31 32  2  0
 31 34  1  0
 32 33  1  0
 32 55  1  0
 33 36  2  0
 33 56  1  0
 34 35  2  0
 34 57  1  0
 35 36  1  0
 35 58  1  0
 36 37  1  0
 37 38  1  0
 38 59  1  0
 38 60  1  0
 38 61  1  0
M  CHG  1   3  -1
M  END
> <Name>
2Q59_240_97

> <Forcefield>
MMFF

> <ForcefieldBase>
MMFF

> <ForcefieldFFML>
<?xml version="1.0" encoding="UTF-8"?>
<!DOCTYPE ffml SYSTEM "Ffml.dtd">
<ffml version="1.0">
<forcefield name="MMFF" derivedFrom="MMFF" base="MMFF">
<atomTypes>
<atomType
name="O100"
element="O"
mass="16"
annotation=""/>
<atomType
name="C101"
element="C"
mass="12.011"
annotation=""/>
<atomType
name="F102"
element="F"
mass="18.998"
annotation=""/>
<atomType
name="N103"
element="N"
mass="14.007"
annotation=""/>
<atomType
name="H104"
element="H"
mass="1.008"
annotation=""/>
</atomTypes>
<parameters>
</parameters>
</forcefield>
</ffml>

> <REMARK99>
REMARK  99  MacroMolecule created from Mol2 file
REMARK  99  2Q59 240 97
REMARK  99  PROTEIN
REMARK  99  USER_CHARGES
REMARK  99
REMARK  99

> <Initial Potential Energy>
242.413131713867

> <Initial RMS Gradient>
16.0622291564941

> <Minimization Criteria>
 CONJUG> Minimization exiting with gradient tolerance ( 0.0100000) satisfied.

> <CHARMm Energy>
158.360885620117

> <Potential Energy>
158.360885620117

> <RMS Gradient>
0.00947999954223633

> <Bond Energy>
8.84012031555176

> <Angle Energy>
28.8296394348145

> <STRBend>
0.156079992651939

> <Dihedral Energy>
14.2934503555298

> <OOPLane>
0.183410003781319

> <Van der Waals Energy>
77.3410186767578

> <Electrostatic Energy>
28.7171592712402

> <Hydrogen Bond Energy>
0

> <Solvation Free Energy>
0

> <HasGasteigerCharges>
true

$$$$
3BC5_ZAA_138
  SciTegic05202517373D

 65 69  0  0  0  0            999 V2000
   56.2521   23.7959    5.6709 C   0  0
   54.5435   29.2154    5.7518 C   0  0
   54.7080   27.8393    5.9220 C   0  0
   55.9178   27.3356    6.3920 C   0  0
   55.5840   30.0931    6.0549 C   0  0
   56.8007   29.6039    6.5439 C   0  0
   56.9491   28.2197    6.7192 C   0  0
   57.9394   30.5449    6.8587 C   0  0
   59.0562   30.4498    5.8696 C   0  0
   59.2777   31.1549    4.7370 C   0  0
   57.7521   23.6144   -1.0127 C   0  0
   57.5243   23.5468    0.3628 C   0  0
   58.4780   32.2249    4.0901 C   0  0
   62.7893   28.2125    5.7811 C   0  0
   59.3234   25.1939    5.8494 C   0  0
   58.5433   24.5924    4.7554 C   0  0
   57.3105   23.9838    4.6404 C   0  0
   57.1083   23.5867    3.3328 N   0  0
   58.1517   24.0905    2.6922 C   0  0
   59.0861   24.6696    3.5075 O   0  0
   58.4303   24.1258    1.2597 C   0  0
   59.5778   24.7491    0.7398 C   0  0
   59.8098   24.8021   -0.6391 C   0  0
   58.8933   24.2343   -1.5166 C   0  0
   55.4202   25.0673    5.8531 C   0  0
   56.2027   26.0146    6.5927 O   0  0
   60.5185   30.7517    4.2284 N   0  0
   61.0822   29.8156    5.0515 N   0  0
   60.1691   29.6222    6.0457 N   0  0
   62.3605   29.2366    4.9230 C   0  0
   63.2511   29.6792    3.9309 C   0  0
   64.5242   29.1222    3.8017 C   0  0
   64.9304   28.1112    4.6662 C   0  0
   64.0647   27.6545    5.6561 C   0  0
   58.9626   33.6092    4.4762 C   0  0
   58.2254   34.5881    4.4636 O   0  0
   60.2752   33.7334    4.7922 O   0  0
   55.5943   22.9781    5.3548 H   0  0
   56.7148   23.5013    6.6200 H   0  0
   53.5974   29.6081    5.3880 H   0  0
   53.8728   27.1870    5.6919 H   0  0
   55.4278   31.1615    5.9174 H   0  0
   57.8863   27.8197    7.0978 H   0  0
   57.5683   31.5771    6.8983 H   0  0
   58.3102   30.3354    7.8701 H   0  0
   57.0430   23.1547   -1.6972 H   0  0
   56.6370   23.0236    0.7234 H   0  0
   58.5211   32.1346    2.9998 H   0  0
   57.4286   32.1429    4.3927 H   0  0
   62.1328   27.8369    6.5601 H   0  0
   60.3315   24.7685    5.8794 H   0  0
   58.8538   25.0139    6.8205 H   0  0
   59.4137   26.2746    5.7051 H   0  0
   60.2999   25.2143    1.4089 H   0  0
   60.6988   25.3029   -1.0151 H   0  0
   59.0646   24.2424   -2.5937 H   0  0
   55.1273   25.4542    4.8686 H   0  0
   54.5222   24.8379    6.4375 H   0  0
   60.5900   30.6169    3.2220 H   0  0
   60.4497   29.3641    6.9856 H   0  0
   62.9707   30.4858    3.2601 H   0  0
   65.2057   29.4944    3.0403 H   0  0
   65.9292   27.6932    4.5778 H   0  0
   64.3894   26.8737    6.3398 H   0  0
   60.7527   32.8727    4.7691 H   0  0
  1 17  1  0
  1 25  1  0
  1 38  1  0
  1 39  1  0
  2  3  2  0
  2  5  1  0
  2 40  1  0
  3  4  1  0
  3 41  1  0
  4  7  2  0
  4 26  1  0
  5  6  2  0
  5 42  1  0
  6  7  1  0
  6  8  1  0
  7 43  1  0
  8  9  1  0
  8 44  1  0
  8 45  1  0
  9 10  2  0
  9 29  1  0
 10 13  1  0
 10 27  1  0
 11 12  2  0
 11 24  1  0
 11 46  1  0
 12 21  1  0
 12 47  1  0
 13 35  1  0
 13 48  1  0
 13 49  1  0
 14 30  2  0
 14 34  1  0
 14 50  1  0
 15 16  1  0
 15 51  1  0
 15 52  1  0
 15 53  1  0
 16 17  2  0
 16 20  1  0
 17 18  1  0
 18 19  2  0
 19 20  1  0
 19 21  1  0
 21 22  2  0
 22 23  1  0
 22 54  1  0
 23 24  2  0
 23 55  1  0
 24 56  1  0
 25 26  1  0
 25 57  1  0
 25 58  1  0
 27 28  1  0
 27 59  1  0
 28 29  1  0
 28 30  1  0
 29 60  1  0
 30 31  1  0
 31 32  2  0
 31 61  1  0
 32 33  1  0
 32 62  1  0
 33 34  2  0
 33 63  1  0
 34 64  1  0
 35 36  2  0
 35 37  1  0
 37 65  1  0
M  END
> <Name>
3BC5_ZAA_138

> <Forcefield>
MMFF

> <ForcefieldBase>
MMFF

> <ForcefieldFFML>
<?xml version="1.0" encoding="UTF-8"?>
<!DOCTYPE ffml SYSTEM "Ffml.dtd">
<ffml version="1.0">
<forcefield name="MMFF" derivedFrom="MMFF" base="MMFF">
<atomTypes>
<atomType
name="C100"
element="C"
mass="12.011"
annotation=""/>
<atomType
name="N101"
element="N"
mass="14.007"
annotation=""/>
<atomType
name="O102"
element="O"
mass="16"
annotation=""/>
<atomType
name="H103"
element="H"
mass="1.008"
annotation=""/>
</atomTypes>
<parameters>
</parameters>
</forcefield>
</ffml>

> <REMARK99>
REMARK  99  MacroMolecule created from Mol2 file
REMARK  99  3BC5 ZAA 138
REMARK  99  PROTEIN
REMARK  99  USER_CHARGES
REMARK  99
REMARK  99

> <Initial Potential Energy>
178.895385742188

> <Initial RMS Gradient>
23.4756393432617

> <Minimization Criteria>
 STEEPD> Minimization exiting with gradient tolerance ( 3.0000000) satisfied.

> <CHARMm Energy>
105.262390136719

> <Potential Energy>
105.262390136719

> <RMS Gradient>
0.0547700002789497

> <Bond Energy>
6.24979019165039

> <Angle Energy>
46.9306182861328

> <STRBend>
-1.5686000585556

> <Dihedral Energy>
1.77353000640869

> <OOPLane>
4.4283299446106

> <Van der Waals Energy>
58.4116592407227

> <Electrostatic Energy>
-10.9629402160645

> <Hydrogen Bond Energy>
0

> <Solvation Free Energy>
0

> <HasGasteigerCharges>
true

$$$$
3CDS_GRR_116
  SciTegic05202517373D

 37 38  0  0  0  0            999 V2000
   22.6400   68.5679   16.8043 C   0  0
   22.9725   67.8213   18.0871 C   0  0
   22.2237   66.5192   18.1866 C   0  0
   22.7721   65.3387   17.6738 C   0  0
   22.0634   64.1374   17.7606 C   0  0
   20.9557   66.4713   18.7788 C   0  0
   20.2488   65.2658   18.8613 C   0  0
   20.7952   64.0943   18.3441 C   0  0
   20.2168   62.8567   18.3633 O   0  0
   18.7928   62.7814   18.6038 C   0  0  2  0  0  0
   18.4826   62.6891   20.1202 C   0  0
   18.9372   61.6848   20.7410 O   0  5
   17.7595   63.6325   20.5668 O   0  0
   18.2720   61.4660   18.0098 C   0  0
   18.0864   61.5488   16.5057 C   0  0
   16.8348   61.8639   15.9608 C   0  0
   16.6681   61.9532   14.5777 C   0  0
   17.7517   61.7341   13.7281 C   0  0
   19.0033   61.4296   14.2611 C   0  0
   19.1704   61.3394   15.6436 C   0  0
   23.1979   69.5085   16.7583 H   0  0
   21.5719   68.8040   16.7474 H   0  0
   22.9003   67.9752   15.9208 H   0  0
   24.0517   67.6316   18.1359 H   0  0
   22.7363   68.4503   18.9541 H   0  0
   23.7532   65.3412   17.2078 H   0  0
   22.4970   63.2216   17.3688 H   0  0
   20.5031   67.3686   19.1933 H   0  0
   19.2805   65.2705   19.3540 H   0  0
   18.2657   63.6251   18.1392 H   0  0
   18.9647   60.6401   18.2212 H   0  0
   17.3102   61.1839   18.4587 H   0  0
   15.9876   62.0477   16.6180 H   0  0
   15.6937   62.2006   14.1673 H   0  0
   17.6229   61.8089   12.6527 H   0  0
   19.8534   61.2698   13.6047 H   0  0
   20.1520   61.1172   16.0574 H   0  0
  1  2  1  0
  1 21  1  0
  1 22  1  0
  1 23  1  0
  2  3  1  0
  2 24  1  0
  2 25  1  0
  3  4  2  0
  3  6  1  0
  4  5  1  0
  4 26  1  0
  5  8  2  0
  5 27  1  0
  6  7  2  0
  6 28  1  0
  7  8  1  0
  7 29  1  0
  8  9  1  0
  9 10  1  0
 10 11  1  0
 10 14  1  0
 10 30  1  0
 11 12  1  0
 11 13  2  0
 14 15  1  0
 14 31  1  0
 14 32  1  0
 15 16  2  0
 15 20  1  0
 16 17  1  0
 16 33  1  0
 17 18  2  0
 17 34  1  0
 18 19  1  0
 18 35  1  0
 19 20  2  0
 19 36  1  0
 20 37  1  0
M  CHG  1  12  -1
M  END
> <Name>
3CDS_GRR_116

> <Forcefield>
MMFF

> <ForcefieldBase>
MMFF

> <ForcefieldFFML>
<?xml version="1.0" encoding="UTF-8"?>
<!DOCTYPE ffml SYSTEM "Ffml.dtd">
<ffml version="1.0">
<forcefield name="MMFF" derivedFrom="MMFF" base="MMFF">
<atomTypes>
<atomType
name="C100"
element="C"
mass="12.011"
annotation=""/>
<atomType
name="O101"
element="O"
mass="16"
annotation=""/>
<atomType
name="H102"
element="H"
mass="1.008"
annotation=""/>
</atomTypes>
<parameters>
</parameters>
</forcefield>
</ffml>

> <REMARK99>
REMARK  99  MacroMolecule created from Mol2 file
REMARK  99  3CDS GRR 116
REMARK  99  PROTEIN
REMARK  99  USER_CHARGES
REMARK  99
REMARK  99

> <Initial Potential Energy>
107.127586364746

> <Initial RMS Gradient>
7.80773019790649

> <Minimization Criteria>
 CONJUG> Minimization exiting with gradient tolerance ( 0.0100000) satisfied.

> <CHARMm Energy>
92.1056137084961

> <Potential Energy>
92.1056137084961

> <RMS Gradient>
0.00908999983221292

> <Bond Energy>
4.10244989395142

> <Angle Energy>
9.07610034942627

> <STRBend>
0.391319990158081

> <Dihedral Energy>
1.76159000396729

> <OOPLane>
0.0520300008356571

> <Van der Waals Energy>
39.807918548584

> <Electrostatic Energy>
36.9142189025879

> <Hydrogen Bond Energy>
0

> <Solvation Free Energy>
0

> <HasGasteigerCharges>
true

$$$$
3IA6_UNT_112
  SciTegic05202517373D

 56 59  0  0  0  0            999 V2000
   20.7965   62.2110   19.8397 O   0  5
   19.6859   62.8197   19.6747 C   0  0
   18.9563   63.3331   20.5800 O   0  0
   19.1005   62.8505   18.2434 C   0  0  1  0  0  0
   19.9856   63.4771   17.2116 N   0  0
   19.8051   64.8707   17.1643 N   0  0
   21.0126   65.4957   17.2957 C   0  0
   21.9481   64.5698   17.5213 C   0  0
   21.3685   63.3200   17.4942 N   0  0
   18.8098   61.3721   17.9122 C   0  0
   18.1868   61.2172   16.5386 C   0  0
   16.8663   61.6188   16.3047 C   0  0
   16.3704   61.6753   15.0021 C   0  0
   17.1861   61.3192   13.9217 C   0  0
   18.4837   60.8509   14.1644 C   0  0
   18.9805   60.8011   15.4636 C   0  0
   16.7332   61.5554   12.5060 C   0  0
   17.1975   62.9360   12.0186 C   0  0
   16.9647   63.0861   10.5216 C   0  0
   17.3798   64.3999    9.9549 C   0  0
   16.4751   65.1712    9.2605 N   0  0
   17.1807   66.1776    8.7720 C   0  0
   18.4979   66.1522    9.1659 O   0  0
   18.6126   65.0163    9.9213 C   0  0
   19.9392   64.7133   10.4880 C   0  0
   16.7573   67.3015    7.9410 C   0  0
   17.6694   68.2497    7.4486 C   0  0
   17.2362   69.3152    6.6548 C   0  0
   15.8827   69.4476    6.3495 C   0  0
   14.9637   68.5175    6.8321 C   0  0
   15.3997   67.4507    7.6198 C   0  0
   18.1436   63.3909   18.2612 H   0  0
   18.9905   65.3039   16.7497 H   0  0
   21.1003   66.5681   17.2553 H   0  0
   22.9930   64.6823   17.7550 H   0  0
   21.6241   62.6763   18.2618 H   0  0
   19.7216   60.7623   17.9672 H   0  0
   18.1234   60.9440   18.6554 H   0  0
   16.2474   61.9568   17.1328 H   0  0
   15.3684   62.0601   14.8313 H   0  0
   19.1403   60.5935   13.3377 H   0  0
   20.0164   60.5152   15.6350 H   0  0
   17.1382   60.7633   11.8635 H   0  0
   15.6412   61.4760   12.4389 H   0  0
   16.6651   63.7246   12.5661 H   0  0
   18.2631   63.0736   12.2403 H   0  0
   17.5077   62.2979    9.9846 H   0  0
   15.9002   62.9281   10.3060 H   0  0
   20.7327   65.2100    9.9210 H   0  0
   20.1345   63.6368   10.4667 H   0  0
   19.9954   65.0541   11.5262 H   0  0
   18.7254   68.1605    7.7012 H   0  0
   17.9502   70.0415    6.2726 H   0  0
   15.5437   70.2772    5.7329 H   0  0
   13.9078   68.6195    6.5950 H   0  0
   14.6780   66.7312    8.0048 H   0  0
  1  2  1  0
  2  3  2  0
  2  4  1  0
  4  5  1  0
  4 10  1  0
  4 32  1  0
  5  6  1  0
  5  9  1  0
  6  7  1  0
  6 33  1  0
  7  8  2  0
  7 34  1  0
  8  9  1  0
  8 35  1  0
  9 36  1  0
 10 11  1  0
 10 37  1  0
 10 38  1  0
 11 12  2  0
 11 16  1  0
 12 13  1  0
 12 39  1  0
 13 14  2  0
 13 40  1  0
 14 15  1  0
 14 17  1  0
 15 16  2  0
 15 41  1  0
 16 42  1  0
 17 18  1  0
 17 43  1  0
 17 44  1  0
 18 19  1  0
 18 45  1  0
 18 46  1  0
 19 20  1  0
 19 47  1  0
 19 48  1  0
 20 21  1  0
 20 24  2  0
 21 22  2  0
 22 23  1  0
 22 26  1  0
 23 24  1  0
 24 25  1  0
 25 49  1  0
 25 50  1  0
 25 51  1  0
 26 27  2  0
 26 31  1  0
 27 28  1  0
 27 52  1  0
 28 29  2  0
 28 53  1  0
 29 30  1  0
 29 54  1  0
 30 31  2  0
 30 55  1  0
 31 56  1  0
M  CHG  1   1  -1
M  END
> <Name>
3IA6_UNT_112

> <Forcefield>
MMFF

> <ForcefieldBase>
MMFF

> <ForcefieldFFML>
<?xml version="1.0" encoding="UTF-8"?>
<!DOCTYPE ffml SYSTEM "Ffml.dtd">
<ffml version="1.0">
<forcefield name="MMFF" derivedFrom="MMFF" base="MMFF">
<atomTypes>
<atomType
name="O100"
element="O"
mass="16"
annotation=""/>
<atomType
name="C101"
element="C"
mass="12.011"
annotation=""/>
<atomType
name="N102"
element="N"
mass="14.007"
annotation=""/>
<atomType
name="H103"
element="H"
mass="1.008"
annotation=""/>
</atomTypes>
<parameters>
</parameters>
</forcefield>
</ffml>

> <REMARK99>
REMARK  99  MacroMolecule created from Mol2 file
REMARK  99  3IA6 UNT 112
REMARK  99  PROTEIN
REMARK  99  USER_CHARGES
REMARK  99
REMARK  99

> <Initial Potential Energy>
220.071090698242

> <Initial RMS Gradient>
14.661600112915

> <Minimization Criteria>
 CONJUG> Minimization exiting with gradient tolerance ( 0.0100000) satisfied.

> <CHARMm Energy>
143.84211730957

> <Potential Energy>
143.84211730957

> <RMS Gradient>
0.00997000001370907

> <Bond Energy>
6.23345994949341

> <Angle Energy>
33.679370880127

> <STRBend>
1.1494699716568

> <Dihedral Energy>
7.44970989227295

> <OOPLane>
4.64145994186401

> <Van der Waals Energy>
48.6996612548828

> <Electrostatic Energy>
41.9889907836914

> <Hydrogen Bond Energy>
0

> <Solvation Free Energy>
0

> <HasGasteigerCharges>
true

$$$$
3v9y_24L_105
  SciTegic05202517373D

 71 75  0  0  0  0            999 V2000
   16.8817   50.9513   65.7763 C   0  0
   16.7705   51.6221   64.4329 C   0  0
   17.0518   52.8177   64.3080 O   0  0
   16.3531   50.8417   63.2337 C   0  0
   15.8470   49.4304   63.3112 C   0  0
   15.8519   48.5857   62.0414 C   0  0  2  0  0  0
   15.7376   49.4670   60.8187 C   0  0
   15.9899   50.7782   60.8085 C   0  0
   16.4251   51.4308   62.0179 C   0  0
   15.0176   48.8333   59.8152 O   0  0
   14.2996   47.8359   60.4418 C   0  0
   14.6476   47.7147   61.7951 C   0  0
   13.9244   46.8548   62.5939 C   0  0
   12.9103   46.0740   62.0268 C   0  0
   12.6105   46.1514   60.6558 C   0  0
   13.2985   47.0782   59.8631 C   0  0
   17.1400   47.7526   62.0132 C   0  0
   15.5243   48.9407   64.3977 O   0  0
   16.8195   52.7325   61.7856 O   0  0
   14.1150   46.7171   63.9299 O   0  0
   11.6510   45.3855   60.0462 O   0  0
   11.3875   44.1258   60.6581 C   0  0
   12.9963   47.2699   58.4401 C   0  0
   13.8153   46.9304   57.5945 O   0  0
   11.7783   47.8483   58.2060 N   0  0
   11.3091   48.1367   56.8787 C   0  0
    9.8498   48.5304   56.9203 C   0  0
    8.8130   47.5766   57.1230 C   0  0
    7.4762   48.0368   57.2245 C   0  0
    7.1891   49.4051   57.1050 C   0  0
    8.2098   50.3429   56.9187 C   0  0
    9.5327   49.8982   56.8359 C   0  0
    6.4382   47.1229   57.4615 C   0  0
    6.6926   45.7594   57.5927 C   0  0
    7.9919   45.2894   57.4839 C   0  0
    9.0368   46.1846   57.2499 C   0  0
    7.8994   51.8169   56.8686 C   0  0
    7.8556   52.4204   58.2767 C   0  0
    7.8766   53.9436   58.2659 C   0  0
    6.6261   54.5232   57.6615 C   0  0
    6.7750   54.9619   56.3872 O   0  0
    5.5518   54.6007   58.2409 O   0  0
   17.4607   50.0276   65.6981 H   0  0
   15.8865   50.7618   66.1851 H   0  0
   17.4160   51.6152   66.4635 H   0  0
   15.7493   51.3887   59.9400 H   0  0
   12.3656   45.4038   62.6869 H   0  0
   17.2416   47.1767   61.0853 H   0  0
   17.1628   47.0380   62.8450 H   0  0
   18.0290   48.3876   62.1078 H   0  0
   17.1758   53.1163   62.6259 H   0  0
   14.6905   47.4301   64.2795 H   0  0
   10.8144   43.5246   59.9455 H   0  0
   10.7721   44.2525   61.5543 H   0  0
   12.3116   43.5829   60.8850 H   0  0
   11.1585   48.0338   58.9851 H   0  0
   11.9282   48.9458   56.4734 H   0  0
   11.4705   47.2718   56.2257 H   0  0
    6.1560   49.7476   57.1747 H   0  0
   10.3358   50.6255   56.7203 H   0  0
    5.4092   47.4678   57.5460 H   0  0
    5.8716   45.0679   57.7681 H   0  0
    8.1982   44.2284   57.5850 H   0  0
   10.0414   45.7728   57.1776 H   0  0
    8.6604   52.3231   56.2611 H   0  0
    6.9447   51.9747   56.3519 H   0  0
    6.9623   52.0591   58.8022 H   0  0
    8.7204   52.0749   58.8577 H   0  0
    7.9442   54.3238   59.2923 H   0  0
    8.7653   54.3233   57.7498 H   0  0
    7.6861   54.8096   56.0617 H   0  0
  1  2  1  0
  1 43  1  0
  1 44  1  0
  1 45  1  0
  2  3  2  0
  2  4  1  0
  4  5  1  0
  4  9  2  0
  5  6  1  0
  5 18  2  0
  6  7  1  0
  6 12  1  0
  6 17  1  0
  7  8  2  0
  7 10  1  0
  8  9  1  0
  8 46  1  0
  9 19  1  0
 10 11  1  0
 11 12  2  0
 11 16  1  0
 12 13  1  0
 13 14  2  0
 13 20  1  0
 14 15  1  0
 14 47  1  0
 15 16  2  0
 15 21  1  0
 16 23  1  0
 17 48  1  0
 17 49  1  0
 17 50  1  0
 19 51  1  0
 20 52  1  0
 21 22  1  0
 22 53  1  0
 22 54  1  0
 22 55  1  0
 23 24  2  0
 23 25  1  0
 25 26  1  0
 25 56  1  0
 26 27  1  0
 26 57  1  0
 26 58  1  0
 27 28  2  0
 27 32  1  0
 28 29  1  0
 28 36  1  0
 29 30  2  0
 29 33  1  0
 30 31  1  0
 30 59  1  0
 31 32  2  0
 31 37  1  0
 32 60  1  0
 33 34  2  0
 33 61  1  0
 34 35  1  0
 34 62  1  0
 35 36  2  0
 35 63  1  0
 36 64  1  0
 37 38  1  0
 37 65  1  0
 37 66  1  0
 38 39  1  0
 38 67  1  0
 38 68  1  0
 39 40  1  0
 39 69  1  0
 39 70  1  0
 40 41  1  0
 40 42  2  0
 41 71  1  0
M  END
> <Name>
3v9y_24L_105

> <Forcefield>
MMFF

> <ForcefieldBase>
MMFF

> <ForcefieldFFML>
<?xml version="1.0" encoding="UTF-8"?>
<!DOCTYPE ffml SYSTEM "Ffml.dtd">
<ffml version="1.0">
<forcefield name="MMFF" derivedFrom="MMFF" base="MMFF">
<atomTypes>
<atomType
name="C100"
element="C"
mass="12.011"
annotation=""/>
<atomType
name="O101"
element="O"
mass="16"
annotation=""/>
<atomType
name="N102"
element="N"
mass="14.007"
annotation=""/>
<atomType
name="H103"
element="H"
mass="1.008"
annotation=""/>
</atomTypes>
<parameters>
</parameters>
</forcefield>
</ffml>

> <REMARK99>
REMARK  99  MacroMolecule created from Mol2 file
REMARK  99  3v9y 24L 105
REMARK  99  PROTEIN
REMARK  99  USER_CHARGES
REMARK  99
REMARK  99

> <Initial Potential Energy>
126.544250488281

> <Initial RMS Gradient>
19.1640205383301

> <Minimization Criteria>
 STEEPD> Minimization exiting with gradient tolerance ( 3.0000000) satisfied.

> <CHARMm Energy>
27.9146709442139

> <Potential Energy>
27.9146709442139

> <RMS Gradient>
0.0342199988663197

> <Bond Energy>
8.75592994689941

> <Angle Energy>
30.1893901824951

> <STRBend>
-0.547360002994537

> <Dihedral Energy>
10.8122396469116

> <OOPLane>
0.617529988288879

> <Van der Waals Energy>
82.6770477294922

> <Electrostatic Energy>
-104.590103149414

> <Hydrogen Bond Energy>
0

> <Solvation Free Energy>
0

> <HasGasteigerCharges>
true

$$$$
5U5L_7VA_126
  SciTegic05202517373D

 47 50  0  0  0  0            999 V2000
   -6.5131   28.3429  130.0894 C   0  0
   -8.6876   29.8771  129.2851 C   0  0
   -7.8998   30.2914  125.5019 C   0  0
   -8.4554   32.1111  124.5248 C   0  0
   -6.9542   33.7920  125.4820 C   0  0
   -8.6395   34.4258  123.8577 C   0  0
   -5.9764   31.1479  126.9162 C   0  0
   -7.5045   37.0121  123.8757 C   0  0
   -4.2974   31.1376  134.4426 N   0  0
   -5.6098   30.8386  134.2381 C   0  0
   -5.9725   30.7845  132.7687 C   0  0  1  0  0  0
   -4.4177   31.1985  131.8861 S   0  0
   -3.4968   31.3086  133.3641 C   0  0
   -2.2892   31.4822  133.4365 O   0  0
   -6.3746   30.6177  135.1711 O   0  0
   -6.5154   29.3995  132.3972 C   0  0
   -7.0564   29.2776  130.9850 C   0  0
   -7.0502   28.1782  128.8045 C   0  0
   -8.1249   28.9631  128.3945 C   0  0
   -8.1565   30.0391  130.5689 C   0  0
   -8.7446   28.8400  127.1831 O   0  0
   -7.9047   28.8843  126.0194 C   0  0
   -7.0535   31.2832  125.9645 N   0  0
   -7.4170   32.4698  125.3730 C   0  0
   -8.7047   30.7650  124.5595 N   0  0
   -7.5752   34.7701  124.6896 C   0  0
   -9.0859   33.1005  123.7650 C   0  0
   -7.0545   36.0330  124.8104 O   0  0
   -5.6843   27.7062  130.3968 H   0  0
   -9.5513   30.4633  128.9782 H   0  0
   -6.1353   34.0579  126.1417 H   0  0
   -9.1478   35.1648  123.2452 H   0  0
   -5.1623   31.8203  126.6322 H   0  0
   -5.5921   30.1274  126.9079 H   0  0
   -6.3536   31.4162  127.9052 H   0  0
   -6.9245   37.9243  124.0452 H   0  0
   -8.5596   37.2527  124.0407 H   0  0
   -7.3254   36.6893  122.8447 H   0  0
   -3.9132   31.1928  135.3725 H   0  0
   -5.7453   28.6356  132.5725 H   0  0
   -7.3354   29.1326  133.0784 H   0  0
   -6.6418   27.4056  128.1595 H   0  0
   -8.6319   30.7474  131.2439 H   0  0
   -8.3685   28.2335  125.2697 H   0  0
   -6.8960   28.4964  126.1872 H   0  0
   -9.9017   32.8333  123.1019 H   0  0
   -6.7002   31.5787  132.5728 H   0  0
  1 17  2  0
  1 18  1  0
  1 29  1  0
  2 19  1  0
  2 20  2  0
  2 30  1  0
  3 22  1  0
  3 23  1  0
  3 25  2  0
  4 24  2  0
  4 25  1  0
  4 27  1  0
  5 24  1  0
  5 26  2  0
  5 31  1  0
  6 26  1  0
  6 27  2  0
  6 32  1  0
  7 23  1  0
  7 33  1  0
  7 34  1  0
  7 35  1  0
  8 28  1  0
  8 36  1  0
  8 37  1  0
  8 38  1  0
  9 10  1  0
  9 13  1  0
  9 39  1  0
 10 11  1  0
 10 15  2  0
 11 12  1  0
 11 16  1  0
 11 47  1  0
 12 13  1  0
 13 14  2  0
 16 17  1  0
 16 40  1  0
 16 41  1  0
 17 20  1  0
 18 19  2  0
 18 42  1  0
 19 21  1  0
 20 43  1  0
 21 22  1  0
 22 44  1  0
 22 45  1  0
 23 24  1  0
 26 28  1  0
 27 46  1  0
M  END
> <Name>
5U5L_7VA_126

> <Forcefield>
MMFF

> <ForcefieldBase>
MMFF

> <ForcefieldFFML>
<?xml version="1.0" encoding="UTF-8"?>
<!DOCTYPE ffml SYSTEM "Ffml.dtd">
<ffml version="1.0">
<forcefield name="MMFF" derivedFrom="MMFF" base="MMFF">
<atomTypes>
<atomType
name="C100"
element="C"
mass="12.011"
annotation=""/>
<atomType
name="N101"
element="N"
mass="14.007"
annotation=""/>
<atomType
name="S102"
element="S"
mass="32.066"
annotation=""/>
<atomType
name="O103"
element="O"
mass="16"
annotation=""/>
<atomType
name="H104"
element="H"
mass="1.008"
annotation=""/>
</atomTypes>
<parameters>
</parameters>
</forcefield>
</ffml>

> <REMARK99>
REMARK  99  MacroMolecule created from Mol2 file
REMARK  99  7VA
REMARK  99  PROTEIN
REMARK  99  USER_CHARGES
REMARK  99
REMARK  99

> <Initial Potential Energy>
64.3327789306641

> <Initial RMS Gradient>
23.2351093292236

> <Minimization Criteria>
 CONJUG> Minimization exiting with gradient tolerance ( 0.0100000) satisfied.

> <CHARMm Energy>
-17.5759201049805

> <Potential Energy>
-17.5759201049805

> <RMS Gradient>
0.00837999954819679

> <Bond Energy>
4.70840978622437

> <Angle Energy>
18.23291015625

> <STRBend>
-0.339029997587204

> <Dihedral Energy>
11.7064800262451

> <OOPLane>
0.126800000667572

> <Van der Waals Energy>
41.8070106506348

> <Electrostatic Energy>
-93.8185119628906

> <Hydrogen Bond Energy>
0

> <Solvation Free Energy>
0

> <HasGasteigerCharges>
true

$$$$
6ENQ_BJB_97
  SciTegic05202517373D

 42 45  0  0  0  0            999 V2000
  -13.9627   19.4040  -11.0541 C   0  0
  -16.9276   22.8842  -10.2220 C   0  0
  -17.8018   21.8192  -10.0512 C   0  0
  -17.3596   20.4991  -10.1883 C   0  0
  -15.1136   21.3326  -10.6592 C   0  0
  -12.8799   18.4241  -11.3998 C   0  0
  -12.3548   17.6421  -10.2008 C   0  0
  -19.8388   18.4733  -16.1632 C   0  0
  -18.6966   18.0829  -14.0624 C   0  0
  -16.4788   18.2789  -15.0107 C   0  0
  -17.8755   18.3040  -15.1719 C   0  0
  -16.0065   20.2656  -10.5060 C   0  0
  -15.5803   22.6582  -10.5120 C   0  0
  -15.2795   19.0990  -10.7431 N   0  0
  -13.8444   20.7806  -10.9670 C   0  0
  -17.5244   24.5002  -10.0910 Cl  0  0
  -16.0627   17.5933  -11.0447 S   0  0
  -16.7810   17.8496  -12.6518 C   0  0
  -18.1741   17.8462  -12.7834 C   0  0
  -15.9384   18.0454  -13.7469 C   0  0
  -20.3451   18.1580  -14.5596 S   0  0
  -18.5427   18.5286  -16.3660 N   0  0
  -17.1396   17.4836  -10.0779 O   0  0
  -15.0692   16.5532  -11.1975 O   0  0
  -11.4978   18.4985   -9.2813 C   0  0
  -10.9921   17.5996   -8.1644 C   0  0
  -11.4780   17.8364   -7.0213 O   0  0
  -10.1064   16.7577   -8.4937 O   0  5
  -18.8442   22.0004   -9.8039 H   0  0
  -18.0664   19.6894  -10.0348 H   0  0
  -13.2216   17.7315  -12.1726 H   0  0
  -12.0461   18.9666  -11.8660 H   0  0
  -13.1742   17.1984   -9.6242 H   0  0
  -11.7567   16.8039  -10.5802 H   0  0
  -20.5527   18.6200  -16.9634 H   0  0
  -15.8342   18.4370  -15.8700 H   0  0
  -14.8941   23.4910  -10.6340 H   0  0
  -12.9270   21.3335  -11.1325 H   0  0
  -18.8290   17.6758  -11.9339 H   0  0
  -14.8578   18.0151  -13.6409 H   0  0
  -10.6413   18.9204   -9.8191 H   0  0
  -12.0731   19.3307   -8.8624 H   0  0
  1  6  1  0
  1 14  1  0
  1 15  2  0
  2  3  2  0
  2 13  1  0
  2 16  1  0
  3  4  1  0
  3 29  1  0
  4 12  2  0
  4 30  1  0
  5 12  1  0
  5 13  2  0
  5 15  1  0
  6  7  1  0
  6 31  1  0
  6 32  1  0
  7 25  1  0
  7 33  1  0
  7 34  1  0
  8 21  1  0
  8 22  2  0
  8 35  1  0
  9 11  2  0
  9 19  1  0
  9 21  1  0
 10 11  1  0
 10 20  2  0
 10 36  1  0
 11 22  1  0
 12 14  1  0
 13 37  1  0
 14 17  1  0
 15 38  1  0
 17 18  1  0
 17 23  2  0
 17 24  2  0
 18 19  2  0
 18 20  1  0
 19 39  1  0
 20 40  1  0
 25 26  1  0
 25 41  1  0
 25 42  1  0
 26 27  2  0
 26 28  1  0
M  CHG  1  28  -1
M  END
> <Name>
6ENQ_BJB_97

> <Forcefield>
MMFF

> <ForcefieldBase>
MMFF

> <ForcefieldFFML>
<?xml version="1.0" encoding="UTF-8"?>
<!DOCTYPE ffml SYSTEM "Ffml.dtd">
<ffml version="1.0">
<forcefield name="MMFF" derivedFrom="MMFF" base="MMFF">
<atomTypes>
<atomType
name="C100"
element="C"
mass="12.011"
annotation=""/>
<atomType
name="N101"
element="N"
mass="14.007"
annotation=""/>
<atomType
name="Cl102"
element="Cl"
mass="35.453"
annotation=""/>
<atomType
name="S103"
element="S"
mass="32.066"
annotation=""/>
<atomType
name="O104"
element="O"
mass="16"
annotation=""/>
<atomType
name="H105"
element="H"
mass="1.008"
annotation=""/>
</atomTypes>
<parameters>
</parameters>
</forcefield>
</ffml>

> <REMARK99>
REMARK  99  MacroMolecule created from Mol2 file
REMARK  99  BJB
REMARK  99  PROTEIN
REMARK  99  USER_CHARGES
REMARK  99
REMARK  99

> <Initial Potential Energy>
179.231262207031

> <Initial RMS Gradient>
23.6277408599854

> <Minimization Criteria>
 STEEPD> Minimization exiting with gradient tolerance ( 3.0000000) satisfied.

> <CHARMm Energy>
113.170959472656

> <Potential Energy>
113.170959472656

> <RMS Gradient>
0.125640004873276

> <Bond Energy>
4.81820011138916

> <Angle Energy>
14.6508502960205

> <STRBend>
0.278279989957809

> <Dihedral Energy>
-3.58769989013672

> <OOPLane>
0.380050003528595

> <Van der Waals Energy>
37.5527992248535

> <Electrostatic Energy>
59.0784912109375

> <Hydrogen Bond Energy>
0

> <Solvation Free Energy>
0

> <HasGasteigerCharges>
true

$$$$
6ILQ_AE0_114
  SciTegic05202517373D

 73 76  0  0  0  0            999 V2000
  -25.0240  -19.7202    5.6070 C   0  0
  -25.1709  -21.1442    3.7050 C   0  0
  -23.8841  -17.7066    7.9599 C   0  0
  -23.1908  -14.5978   10.1447 C   0  0
  -23.1069  -13.2026   10.0275 C   0  0
  -22.1231  -12.6006    9.2279 C   0  0
  -21.3072  -14.8272    8.6657 C   0  0
  -21.5468  -10.4020   10.2308 C   0  0
  -21.7817   -8.3101    9.0298 C   0  0
  -22.1315  -20.3804   14.0149 C   0  0
  -22.9410  -19.1599   13.6082 C   0  0
  -23.3261  -19.2106   12.1304 C   0  0
  -24.1321  -17.9757   11.7260 C   0  0
  -24.4795  -18.0319   10.2456 C   0  0
  -25.9894  -18.6870    8.6365 C   0  0
  -25.2059  -18.2881    7.6177 C   0  0
  -25.5067  -18.3863    6.1476 C   0  0
  -26.1564  -22.2262    4.1040 C   0  0
  -22.3093  -16.9392    9.6192 C   0  0
  -22.2892  -15.4278    9.4663 C   0  0
  -21.2242  -13.4351    8.5519 C   0  0
  -22.0163  -11.1364    9.1263 C   0  0
  -21.4312   -9.0076   10.1830 C   0  0
  -22.2601   -9.0109    7.9245 C   0  0
  -22.3697  -10.4095    7.9735 C   0  0
  -22.9069  -11.0698    6.7814 C   0  0
  -23.0585  -12.1863    4.9721 C   0  0
  -27.3530  -19.3487    8.4371 C   0  0
  -28.4748  -18.4679    8.9935 C   0  0
  -27.3968  -20.7423    9.0729 C   0  0
  -25.6189  -18.5696    9.9515 N   0  0
  -23.5998  -17.5532    9.3060 N   0  0
  -24.2131  -11.0004    6.4336 N   0  0
  -22.1771  -11.7525    5.9458 N   0  0
  -24.3307  -20.5296    6.2080 O   0  0
  -25.5115  -19.9002    4.3426 O   0  0
  -23.1121  -17.3801    7.0589 O   0  0
  -24.3357  -11.7209    5.2570 O   0  0
  -22.7850  -12.8571    3.9889 O   0  0
  -24.1388  -21.4351    3.9317 H   0  0
  -25.2292  -20.9735    2.6252 H   0  0
  -23.9679  -15.0199   10.7760 H   0  0
  -23.8153  -12.5828   10.5752 H   0  0
  -20.5955  -15.4382    8.1130 H   0  0
  -21.2513  -10.9190   11.1434 H   0  0
  -21.6806   -7.2269    8.9911 H   0  0
  -21.8708  -20.3253   15.0764 H   0  0
  -21.2025  -20.4452   13.4399 H   0  0
  -22.7016  -21.3007   13.8519 H   0  0
  -23.8444  -19.1055   14.2257 H   0  0
  -22.3550  -18.2555   13.8101 H   0  0
  -22.4227  -19.2936   11.5152 H   0  0
  -23.9166  -20.1143   11.9323 H   0  0
  -25.0673  -17.9466   12.2996 H   0  0
  -23.5926  -17.0576   11.9698 H   0  0
  -25.0269  -17.5803    5.5820 H   0  0
  -26.5815  -18.2936    5.9629 H   0  0
  -25.9407  -23.1596    3.5765 H   0  0
  -27.1814  -21.9183    3.8721 H   0  0
  -26.1175  -22.4169    5.1812 H   0  0
  -21.5573  -17.3850    8.9552 H   0  0
  -21.9802  -17.1796   10.6329 H   0  0
  -20.4476  -13.0043    7.9206 H   0  0
  -21.0605   -8.4734   11.0536 H   0  0
  -22.5291   -8.4642    7.0237 H   0  0
  -27.5599  -19.4952    7.3726 H   0  0
  -29.4532  -18.9175    8.7911 H   0  0
  -28.4605  -17.4755    8.5296 H   0  0
  -28.3876  -18.3367   10.0777 H   0  0
  -28.3513  -21.2338    8.8536 H   0  0
  -27.2913  -20.6966   10.1623 H   0  0
  -26.5950  -21.3770    8.6798 H   0  0
  -24.9823  -10.5085    6.8651 H   0  0
  1 17  1  0
  1 35  2  0
  1 36  1  0
  2 18  1  0
  2 36  1  0
  2 40  1  0
  2 41  1  0
  3 16  1  0
  3 32  1  0
  3 37  2  0
  4  5  2  0
  4 20  1  0
  4 42  1  0
  5  6  1  0
  5 43  1  0
  6 21  2  0
  6 22  1  0
  7 20  2  0
  7 21  1  0
  7 44  1  0
  8 22  2  0
  8 23  1  0
  8 45  1  0
  9 23  2  0
  9 24  1  0
  9 46  1  0
 10 11  1  0
 10 47  1  0
 10 48  1  0
 10 49  1  0
 11 12  1  0
 11 50  1  0
 11 51  1  0
 12 13  1  0
 12 52  1  0
 12 53  1  0
 13 14  1  0
 13 54  1  0
 13 55  1  0
 14 31  2  0
 14 32  1  0
 15 16  2  0
 15 28  1  0
 15 31  1  0
 16 17  1  0
 17 56  1  0
 17 57  1  0
 18 58  1  0
 18 59  1  0
 18 60  1  0
 19 20  1  0
 19 32  1  0
 19 61  1  0
 19 62  1  0
 21 63  1  0
 22 25  1  0
 23 64  1  0
 24 25  2  0
 24 65  1  0
 25 26  1  0
 26 33  1  0
 26 34  2  0
 27 34  1  0
 27 38  1  0
 27 39  2  0
 28 29  1  0
 28 30  1  0
 28 66  1  0
 29 67  1  0
 29 68  1  0
 29 69  1  0
 30 70  1  0
 30 71  1  0
 30 72  1  0
 33 38  1  0
 33 73  1  0
M  END
> <Name>
6ILQ_AE0_114

> <Forcefield>
MMFF

> <ForcefieldBase>
MMFF

> <ForcefieldFFML>
<?xml version="1.0" encoding="UTF-8"?>
<!DOCTYPE ffml SYSTEM "Ffml.dtd">
<ffml version="1.0">
<forcefield name="MMFF" derivedFrom="MMFF" base="MMFF">
<atomTypes>
<atomType
name="C100"
element="C"
mass="12.011"
annotation=""/>
<atomType
name="N101"
element="N"
mass="14.007"
annotation=""/>
<atomType
name="O102"
element="O"
mass="16"
annotation=""/>
<atomType
name="H103"
element="H"
mass="1.008"
annotation=""/>
</atomTypes>
<parameters>
</parameters>
</forcefield>
</ffml>

> <REMARK99>
REMARK  99  MacroMolecule created from Mol2 file
REMARK  99  AE0
REMARK  99  PROTEIN
REMARK  99  USER_CHARGES
REMARK  99
REMARK  99

> <Initial Potential Energy>
143.563232421875

> <Initial RMS Gradient>
29.1113204956055

> <Minimization Criteria>
 STEEPD> Minimization exiting with gradient tolerance ( 3.0000000) satisfied.

> <CHARMm Energy>
23.152099609375

> <Potential Energy>
23.152099609375

> <RMS Gradient>
0.177530005574226

> <Bond Energy>
8.01947021484375

> <Angle Energy>
26.5952491760254

> <STRBend>
-0.231690004467964

> <Dihedral Energy>
0.16923999786377

> <OOPLane>
0.0964699983596802

> <Van der Waals Energy>
65.1579513549805

> <Electrostatic Energy>
-76.6545791625977

> <Hydrogen Bond Energy>
0

> <Solvation Free Energy>
0

> <HasGasteigerCharges>
true

$$$$
6T6B_MLQ_96
  SciTegic05202517373D

 54 56  0  0  0  0            999 V2000
   -3.8506   -2.7208  -19.7804 N   0  0
    1.2512   -1.6329  -23.3321 C   0  0
   -5.5306   -2.5514  -14.4638 O   0  0
   -2.3952   -2.4010  -23.7399 C   0  0
   -2.6421   -3.6701  -23.2208 C   0  0
   -3.1106   -3.8343  -21.9024 C   0  0
    0.3866   -4.5975  -25.9549 Cl  0  0
    1.0593   -3.6398  -24.6853 C   0  0
    1.9921   -4.2713  -23.8529 C   0  0
    2.5426   -3.5879  -22.7695 C   0  0
    3.6823   -4.3765  -21.7510 Cl  0  0
    0.6919   -2.3164  -24.4245 C   0  0
    2.1722   -2.2733  -22.5021 C   0  0
   -0.4927   -1.4585  -25.4346 S   0  0
   -0.1705   -1.6985  -26.8207 O   0  0
   -0.6055   -0.1080  -24.9226 O   0  0
   -1.9348   -2.2788  -25.0944 N   0  0
   -2.6245   -1.2722  -22.9392 C   0  0
   -3.0996   -1.4468  -21.6184 C   0  0
   -3.3535   -2.7095  -21.0828 C   0  0
   -3.4803   -0.2598  -20.4267 S   0  0
   -3.9889   -1.4916  -19.3366 C   0  0
   -4.7889   -1.0770  -17.8289 S   0  0
   -4.1294   -2.1632  -16.4923 C   0  0  1  0  0  0
   -5.3266   -2.6852  -15.6622 C   0  0
   -6.1748   -3.3962  -16.4495 O   0  0
   -3.2139   -3.3160  -16.9205 C   0  0
   -2.6108   -4.1212  -15.7569 C   0  0
   -1.7028   -3.2879  -14.8489 C   0  0
   -0.9078   -4.1306  -13.8466 C   0  0
   -1.7881   -4.8442  -12.8200 C   0  0
   -0.9482   -5.5752  -11.7834 C   0  0
    0.9641   -0.6068  -23.1045 H   0  0
   -2.4805   -4.5580  -23.8276 H   0  0
   -3.3080   -4.8279  -21.5095 H   0  0
    2.2832   -5.3022  -24.0434 H   0  0
    2.5830   -1.7452  -21.6436 H   0  0
   -2.0898   -3.0347  -25.7675 H   0  0
   -2.4771   -0.2678  -23.3259 H   0  0
   -3.5743   -1.4809  -15.8403 H   0  0
   -6.9065   -3.6505  -15.8469 H   0  0
   -3.7703   -4.0239  -17.5469 H   0  0
   -2.3820   -2.9269  -17.5201 H   0  0
   -3.4147   -4.5803  -15.1714 H   0  0
   -2.0282   -4.9462  -16.1859 H   0  0
   -0.9889   -2.7311  -15.4682 H   0  0
   -2.2943   -2.5466  -14.3000 H   0  0
   -0.2972   -4.8649  -14.3858 H   0  0
   -0.2102   -3.4666  -13.3209 H   0  0
   -2.4327   -4.1175  -12.3124 H   0  0
   -2.4412   -5.5694  -13.3168 H   0  0
   -1.5950   -6.0830  -11.0610 H   0  0
   -0.3080   -4.8775  -11.2338 H   0  0
   -0.3097   -6.3283  -12.2562 H   0  0
  1 20  1  0
  1 22  2  0
  2 12  2  0
  2 13  1  0
  2 33  1  0
  3 25  2  0
  4  5  2  0
  4 17  1  0
  4 18  1  0
  5  6  1  0
  5 34  1  0
  6 20  2  0
  6 35  1  0
  7  8  1  0
  8  9  2  0
  8 12  1  0
  9 10  1  0
  9 36  1  0
 10 11  1  0
 10 13  2  0
 12 14  1  0
 13 37  1  0
 14 15  2  0
 14 16  2  0
 14 17  1  0
 17 38  1  0
 18 19  2  0
 18 39  1  0
 19 20  1  0
 19 21  1  0
 21 22  1  0
 22 23  1  0
 23 24  1  0
 24 25  1  0
 24 27  1  0
 24 40  1  0
 25 26  1  0
 26 41  1  0
 27 28  1  0
 27 42  1  0
 27 43  1  0
 28 29  1  0
 28 44  1  0
 28 45  1  0
 29 30  1  0
 29 46  1  0
 29 47  1  0
 30 31  1  0
 30 48  1  0
 30 49  1  0
 31 32  1  0
 31 50  1  0
 31 51  1  0
 32 52  1  0
 32 53  1  0
 32 54  1  0
M  END
> <Name>
6T6B_MLQ_96

> <Forcefield>
MMFF

> <ForcefieldBase>
MMFF

> <ForcefieldFFML>
<?xml version="1.0" encoding="UTF-8"?>
<!DOCTYPE ffml SYSTEM "Ffml.dtd">
<ffml version="1.0">
<forcefield name="MMFF" derivedFrom="MMFF" base="MMFF">
<atomTypes>
<atomType
name="N100"
element="N"
mass="14.007"
annotation=""/>
<atomType
name="C101"
element="C"
mass="12.011"
annotation=""/>
<atomType
name="O102"
element="O"
mass="16"
annotation=""/>
<atomType
name="Cl103"
element="Cl"
mass="35.453"
annotation=""/>
<atomType
name="S104"
element="S"
mass="32.066"
annotation=""/>
<atomType
name="H105"
element="H"
mass="1.008"
annotation=""/>
</atomTypes>
<parameters>
</parameters>
</forcefield>
</ffml>

> <REMARK99>
REMARK  99  MacroMolecule created from Mol2 file
REMARK  99  MLQ
REMARK  99  PROTEIN
REMARK  99  USER_CHARGES
REMARK  99
REMARK  99

> <Initial Potential Energy>
6.89216995239258

> <Initial RMS Gradient>
13.9000196456909

> <Minimization Criteria>
 STEEPD> Minimization exiting with gradient tolerance ( 3.0000000) satisfied.

> <CHARMm Energy>
-43.0691108703613

> <Potential Energy>
-43.0691108703613

> <RMS Gradient>
0.0364699997007847

> <Bond Energy>
6.242760181427

> <Angle Energy>
19.3153495788574

> <STRBend>
0.0619099996984005

> <Dihedral Energy>
-4.08182001113892

> <OOPLane>
0.155349999666214

> <Van der Waals Energy>
40.6434097290039

> <Electrostatic Energy>
-105.406066894531

> <Hydrogen Bond Energy>
0

> <Solvation Free Energy>
0

> <HasGasteigerCharges>
true

$$$$
7P4E_5IV_106
  SciTegic05202517373D

 61 65  0  0  0  0            999 V2000
   -4.2795   -3.3450  -15.7575 C   0  0
   -2.8992   -3.5371  -15.8818 C   0  0
   -2.2221   -4.4294  -15.0574 C   0  0
   -2.9613   -5.0971  -14.0738 C   0  0
   -1.1654   -6.3550  -12.8458 C   0  0
   -0.4905   -5.4993  -11.7945 C   0  0
   -0.5332   -4.5106  -23.3950 O   0  0
    0.4553   -2.9735  -25.1418 O   0  0
   -0.6497   -3.3805  -24.2920 S   0  0
   -2.0497   -3.6833  -25.4185 C   0  0
   -1.6809   -4.4806  -26.6480 C   0  0
   -2.4781   -5.1222  -25.5494 C   0  0
   -1.0529   -2.0305  -23.3722 N   0  0
   -1.9922   -2.0137  -22.2965 C   0  0
   -1.9566   -0.9069  -21.4416 C   0  0
   -2.8931   -0.7303  -20.3936 C   0  0
   -2.7379    0.4690  -19.4809 C   0  0
   -1.7793    1.3437  -19.9050 F   0  0
   -3.8769    1.2064  -19.3841 F   0  0
   -2.3887    0.1136  -18.2141 F   0  0
   -3.0166   -2.9401  -22.1284 C   0  0
   -3.9582   -2.7842  -21.0955 C   0  0
   -3.9186   -1.6841  -20.2159 C   0  0
   -4.9187   -1.6221  -19.0679 C   0  0
   -4.4555   -2.4447  -17.9760 N   0  0
   -4.9826   -2.4310  -16.6982 C   0  0
   -5.9505   -1.7780  -16.3251 O   0  0
   -5.0070   -4.0039  -14.7545 C   0  0
   -4.3323   -4.8990  -13.8960 C   0  0
   -4.7365   -5.7084  -12.7923 C   0  0
   -3.6240   -6.3695  -12.3178 C   0  0
   -2.5516   -5.9657  -13.0789 N   0  0
   -0.6452   -4.1010  -11.7497 C   0  0
    0.0078   -3.3306  -10.7853 C   0  0
    0.8442   -3.9446   -9.8640 C   0  0
    1.0233   -5.3214   -9.9117 C   0  0
    1.8370   -5.9149   -9.0269 F   0  0
    0.3731   -6.0963  -10.8695 C   0  0
   -2.3194   -2.9741  -16.6095 H   0  0
   -1.1508   -4.5646  -15.1721 H   0  0
   -0.6118   -6.3089  -13.7885 H   0  0
   -1.1918   -7.4061  -12.5329 H   0  0
   -2.7812   -2.8960  -25.5147 H   0  0
   -2.1862   -4.2419  -27.5779 H   0  0
   -0.6545   -4.8059  -26.7902 H   0  0
   -1.9949   -5.8782  -24.9394 H   0  0
   -3.5316   -5.3139  -25.7186 H   0  0
   -0.3038   -1.3371  -23.3906 H   0  0
   -1.1745   -0.1597  -21.5740 H   0  0
   -3.1056   -3.8111  -22.7699 H   0  0
   -4.7269   -3.5476  -20.9725 H   0  0
   -5.0930   -0.6058  -18.7070 H   0  0
   -5.8910   -2.0094  -19.3942 H   0  0
   -3.7644   -3.1492  -18.1979 H   0  0
   -6.0726   -3.8259  -14.6164 H   0  0
   -5.7373   -5.7841  -12.3886 H   0  0
   -3.5055   -7.0628  -11.4925 H   0  0
   -1.2807   -3.5857  -12.4684 H   0  0
   -0.1376   -2.2534  -10.7619 H   0  0
    1.3544   -3.3587   -9.1085 H   0  0
    0.5498   -7.1682  -10.8707 H   0  0
  1  2  2  0
  1 26  1  0
  1 28  1  0
  2  3  1  0
  2 39  1  0
  3  4  2  0
  3 40  1  0
  4 29  1  0
  4 32  1  0
  5  6  1  0
  5 32  1  0
  5 41  1  0
  5 42  1  0
  6 33  2  0
  6 38  1  0
  7  9  2  0
  8  9  2  0
  9 10  1  0
  9 13  1  0
 10 11  1  0
 10 12  1  0
 10 43  1  0
 11 12  1  0
 11 44  1  0
 11 45  1  0
 12 46  1  0
 12 47  1  0
 13 14  1  0
 13 48  1  0
 14 15  2  0
 14 21  1  0
 15 16  1  0
 15 49  1  0
 16 17  1  0
 16 23  2  0
 17 18  1  0
 17 19  1  0
 17 20  1  0
 21 22  2  0
 21 50  1  0
 22 23  1  0
 22 51  1  0
 23 24  1  0
 24 25  1  0
 24 52  1  0
 24 53  1  0
 25 26  1  0
 25 54  1  0
 26 27  2  0
 28 29  2  0
 28 55  1  0
 29 30  1  0
 30 31  2  0
 30 56  1  0
 31 32  1  0
 31 57  1  0
 33 34  1  0
 33 58  1  0
 34 35  2  0
 34 59  1  0
 35 36  1  0
 35 60  1  0
 36 37  1  0
 36 38  2  0
 38 61  1  0
M  END
> <Name>
7P4E_5IV_106

> <Forcefield>
MMFF

> <ForcefieldBase>
MMFF

> <ForcefieldFFML>
<?xml version="1.0" encoding="UTF-8"?>
<!DOCTYPE ffml SYSTEM "Ffml.dtd">
<ffml version="1.0">
<forcefield name="MMFF" derivedFrom="MMFF" base="MMFF">
<atomTypes>
<atomType
name="C100"
element="C"
mass="12.011"
annotation=""/>
<atomType
name="O101"
element="O"
mass="16"
annotation=""/>
<atomType
name="S102"
element="S"
mass="32.066"
annotation=""/>
<atomType
name="N103"
element="N"
mass="14.007"
annotation=""/>
<atomType
name="F104"
element="F"
mass="18.998"
annotation=""/>
<atomType
name="H105"
element="H"
mass="1.008"
annotation=""/>
</atomTypes>
<parameters>
</parameters>
</forcefield>
</ffml>

> <REMARK99>
REMARK  99  MacroMolecule created from Mol2 file
REMARK  99  5IV
REMARK  99  PROTEIN
REMARK  99  USER_CHARGES
REMARK  99
REMARK  99

> <Initial Potential Energy>
64.6665191650391

> <Initial RMS Gradient>
13.9876403808594

> <Minimization Criteria>
 CONJUG> Minimization exiting with gradient tolerance ( 0.0100000) satisfied.

> <CHARMm Energy>
16.2711601257324

> <Potential Energy>
16.2711601257324

> <RMS Gradient>
0.00973000004887581

> <Bond Energy>
7.33553981781006

> <Angle Energy>
13.5822896957397

> <STRBend>
-0.0942099988460541

> <Dihedral Energy>
15.4824600219727

> <OOPLane>
0.210069999098778

> <Van der Waals Energy>
59.4462699890137

> <Electrostatic Energy>
-79.6912536621094

> <Hydrogen Bond Energy>
0

> <Solvation Free Energy>
0

> <HasGasteigerCharges>
true

$$$$
1FM9_570_119
  SciTegic05202517373D

 72 76  0  0  0  0            999 V2000
   13.7569   -7.3691   12.5421 N   0  0
   13.8339   -6.0545   13.2414 C   0  0  1  0  0  0
   12.4267   -5.5462   13.5915 C   0  0
   11.7653   -4.9578   12.3636 C   0  0
   11.0305   -5.7821   11.5013 C   0  0
   11.9974   -3.6194   12.0136 C   0  0
   10.5961   -5.3011   10.2705 C   0  0
   11.5661   -3.1366   10.7802 C   0  0
   10.9187   -4.0007    9.8984 C   0  0
   10.6285   -3.6004    8.6205 O   0  0
   14.6094   -7.6311   11.4692 C   0  0
   14.2000   -8.4053   10.3679 C   0  0
   15.0848   -8.6878    9.3134 C   0  0
   16.4049   -8.2480    9.3631 C   0  0
   16.8459   -7.5365   10.4721 C   0  0
   15.9590   -7.2426   11.5136 C   0  0
   12.2261   -9.8485   11.2390 C   0  0
   10.8392  -10.0442   11.2219 C   0  0
   10.2355  -10.9362   12.1120 C   0  0
   11.0146  -11.6469   13.0236 C   0  0
   12.3975  -11.4625   13.0462 C   0  0
   13.0041  -10.5702   12.1542 C   0  0
   12.8224   -8.9305   10.2241 C   0  0
   12.1975   -8.6716    9.1930 O   0  0
    9.2116   -6.0444    5.1566 O   0  0
    9.7571   -5.3887    4.0556 C   0  0
   10.6527   -4.3987    4.3774 N   0  0
   10.7565   -4.4562    5.6678 C   0  0
    9.9995   -5.5909    6.2904 C   0  0  2  0  0  0
   10.8770   -6.7494    6.7258 C   0  0
    9.4067   -5.7062    2.7872 C   0  0
   10.0430   -5.0209    1.6609 C   0  0
    9.6724   -5.2887    0.3999 C   0  0
    8.5936   -6.2786    0.0470 C   0  0
    8.0253   -6.9998    1.2438 C   0  0
    8.4081   -6.7427    2.5063 C   0  0
   11.8386   -3.6230    7.8465 C   0  0
   11.4985   -3.3707    6.3965 C   0  0
   15.0158   -5.1626   15.1272 O   0  0
   14.5278   -7.3926   15.0916 O   0  5
   14.5187   -6.2108   14.6177 C   0  0
   13.8014   -8.0892   13.2800 H   0  0
   14.3769   -5.3109   12.6442 H   0  0
   11.8016   -6.3553   13.9928 H   0  0
   12.4544   -4.7738   14.3714 H   0  0
   10.8641   -6.8267   11.7522 H   0  0
   12.5688   -2.9747   12.6785 H   0  0
   10.0778   -5.9662    9.5893 H   0  0
   11.7822   -2.1140   10.4875 H   0  0
   14.7388   -9.2590    8.4564 H   0  0
   17.0777   -8.4626    8.5383 H   0  0
   17.8792   -7.2071   10.5422 H   0  0
   16.3401   -6.7053   12.3809 H   0  0
   10.2244   -9.4974   10.5105 H   0  0
    9.1577  -11.0676   12.0823 H   0  0
   10.5487  -12.3410   13.7203 H   0  0
   13.0063  -12.0099   13.7634 H   0  0
   14.0835  -10.4471   12.1899 H   0  0
   11.4839   -6.5033    7.5974 H   0  0
   11.5572   -7.0576    5.9234 H   0  0
   10.2614   -7.6220    6.9693 H   0  0
   10.8325   -4.3059    1.8765 H   0  0
   10.1630   -4.7727   -0.4184 H   0  0
    7.7840   -5.7564   -0.4747 H   0  0
    9.0101   -7.0207   -0.6434 H   0  0
    7.2731   -7.7585    1.0486 H   0  0
    7.9868   -7.2934    3.3436 H   0  0
   12.4978   -2.8143    8.1874 H   0  0
   12.3739   -4.5720    7.9603 H   0  0
   12.4236   -3.1798    5.8391 H   0  0
   10.8775   -2.4692    6.3204 H   0  0
    9.3161   -5.2491    7.0705 H   0  0
  1  2  1  0
  1 11  1  0
  1 42  1  0
  2  3  1  0
  2 41  1  0
  2 43  1  0
  3  4  1  0
  3 44  1  0
  3 45  1  0
  4  5  2  0
  4  6  1  0
  5  7  1  0
  5 46  1  0
  6  8  2  0
  6 47  1  0
  7  9  2  0
  7 48  1  0
  8  9  1  0
  8 49  1  0
  9 10  1  0
 10 37  1  0
 11 12  2  0
 11 16  1  0
 12 13  1  0
 12 23  1  0
 13 14  2  0
 13 50  1  0
 14 15  1  0
 14 51  1  0
 15 16  2  0
 15 52  1  0
 16 53  1  0
 17 18  2  0
 17 22  1  0
 17 23  1  0
 18 19  1  0
 18 54  1  0
 19 20  2  0
 19 55  1  0
 20 21  1  0
 20 56  1  0
 21 22  2  0
 21 57  1  0
 22 58  1  0
 23 24  2  0
 25 26  1  0
 25 29  1  0
 26 27  1  0
 26 31  2  0
 27 28  2  0
 28 29  1  0
 28 38  1  0
 29 30  1  0
 29 72  1  0
 30 59  1  0
 30 60  1  0
 30 61  1  0
 31 32  1  0
 31 36  1  0
 32 33  2  0
 32 62  1  0
 33 34  1  0
 33 63  1  0
 34 35  1  0
 34 64  1  0
 34 65  1  0
 35 36  2  0
 35 66  1  0
 36 67  1  0
 37 38  1  0
 37 68  1  0
 37 69  1  0
 38 70  1  0
 38 71  1  0
 39 41  2  0
 40 41  1  0
M  CHG  1  40  -1
M  END
> <Name>
1FM9_570_119

> <Forcefield>
MMFF

> <ForcefieldBase>
MMFF

> <ForcefieldFFML>
<?xml version="1.0" encoding="UTF-8"?>
<!DOCTYPE ffml SYSTEM "Ffml.dtd">
<ffml version="1.0">
<forcefield name="MMFF" derivedFrom="MMFF" base="MMFF">
<atomTypes>
<atomType
name="N100"
element="N"
mass="14.007"
annotation=""/>
<atomType
name="C101"
element="C"
mass="12.011"
annotation=""/>
<atomType
name="O102"
element="O"
mass="16"
annotation=""/>
<atomType
name="H103"
element="H"
mass="1.008"
annotation=""/>
</atomTypes>
<parameters>
</parameters>
</forcefield>
</ffml>

> <REMARK99>
REMARK  99  MacroMolecule created from Mol2 file
REMARK  99  1FM9 570 119
REMARK  99  PROTEIN
REMARK  99  USER_CHARGES
REMARK  99
REMARK  99

> <Initial Potential Energy>
332.786529541016

> <Initial RMS Gradient>
23.4856090545654

> <Minimization Criteria>
 CONJUG> Minimization exiting with gradient tolerance ( 0.0100000) satisfied.

> <CHARMm Energy>
183.789276123047

> <Potential Energy>
183.789276123047

> <RMS Gradient>
0.00908000022172928

> <Bond Energy>
9.13123035430908

> <Angle Energy>
18.9701404571533

> <STRBend>
0.745940029621124

> <Dihedral Energy>
28.4275703430176

> <OOPLane>
4.58513021469116

> <Van der Waals Energy>
76.1471099853516

> <Electrostatic Energy>
45.7821617126465

> <Hydrogen Bond Energy>
0

> <Solvation Free Energy>
0

> <HasGasteigerCharges>
true

$$$$
1I7I_AZ2_109
  SciTegic05202517373D

 52 53  0  0  0  0            999 V2000
   18.7839   15.9909   16.6718 C   0  0
   19.2609   16.1831   18.0923 C   0  0
   19.0704   17.6272   18.5795 C   0  0  2  0  0  0
   19.8480   18.5527   17.7709 O   0  0
   19.0312   19.3813   16.9357 C   0  0
   19.9436   20.2177   16.0615 C   0  0
   19.6086   17.7347   19.9986 C   0  0
   20.6551   18.5955   20.0961 O   0  0
   19.1718   17.1171   20.9591 O   0  0
   19.7127   15.9094   15.6268 C   0  0
   19.2870   15.8874   14.2949 C   0  0
   17.9284   15.9597   13.9939 C   0  0
   16.9987   15.9677   15.0402 C   0  0
   17.4174   15.9676   16.3734 C   0  0
   17.3833   16.0561   12.7429 O   0  0
   18.2721   16.0348   11.6197 C   0  0
   17.5105   16.4909   10.3642 C   0  0
   17.6023   17.9830   10.1042 C   0  0
   18.0211   18.4756    8.8597 C   0  0
   18.1688   19.8539    8.6420 C   0  0
   17.8862   20.7531    9.6636 C   0  0
   17.4335   20.2731   10.8927 C   0  0
   17.2789   18.9027   11.1082 C   0  0
   18.0821   22.1040    9.6094 O   0  0
   18.0223   22.9698    8.2291 S   0  0
   18.3607   24.5349    8.9915 C   0  0
   19.1420   22.6703    7.3538 O   0  0
   16.6685   23.0320    7.7074 O   0  0
   18.7245   15.4827   18.7453 H   0  0
   20.3214   15.9057   18.1579 H   0  0
   18.0168   17.9314   18.6005 H   0  0
   18.3751   18.7725   16.3084 H   0  0
   18.4184   20.0330   17.5677 H   0  0
   19.3634   20.8780   15.4110 H   0  0
   20.5752   19.5748   15.4394 H   0  0
   20.6153   20.8263   16.6758 H   0  0
   20.8158   18.9515   19.1862 H   0  0
   20.7801   15.8943   15.8416 H   0  0
   20.0473   15.8416   13.5231 H   0  0
   15.9375   16.0023   14.8052 H   0  0
   16.6777   15.9723   17.1746 H   0  0
   19.1445   16.6804   11.7728 H   0  0
   18.6048   14.9994   11.4810 H   0  0
   17.9417   15.9667    9.5022 H   0  0
   16.4517   16.2118   10.4224 H   0  0
   18.2497   17.7954    8.0382 H   0  0
   18.5243   20.1870    7.6687 H   0  0
   17.2102   20.9634   11.7028 H   0  0
   16.9249   18.5605   12.0787 H   0  0
   18.3618   25.3004    8.2126 H   0  0
   19.3402   24.4914    9.4717 H   0  0
   17.5794   24.7499    9.7232 H   0  0
  1  2  1  0
  1 10  2  0
  1 14  1  0
  2  3  1  0
  2 29  1  0
  2 30  1  0
  3  4  1  0
  3  7  1  0
  3 31  1  0
  4  5  1  0
  5  6  1  0
  5 32  1  0
  5 33  1  0
  6 34  1  0
  6 35  1  0
  6 36  1  0
  7  8  1  0
  7  9  2  0
  8 37  1  0
 10 11  1  0
 10 38  1  0
 11 12  2  0
 11 39  1  0
 12 13  1  0
 12 15  1  0
 13 14  2  0
 13 40  1  0
 14 41  1  0
 15 16  1  0
 16 17  1  0
 16 42  1  0
 16 43  1  0
 17 18  1  0
 17 44  1  0
 17 45  1  0
 18 19  2  0
 18 23  1  0
 19 20  1  0
 19 46  1  0
 20 21  2  0
 20 47  1  0
 21 22  1  0
 21 24  1  0
 22 23  2  0
 22 48  1  0
 23 49  1  0
 24 25  1  0
 25 26  1  0
 25 27  2  0
 25 28  2  0
 26 50  1  0
 26 51  1  0
 26 52  1  0
M  END
> <Name>
1I7I_AZ2_109

> <Forcefield>
MMFF

> <ForcefieldBase>
MMFF

> <ForcefieldFFML>
<?xml version="1.0" encoding="UTF-8"?>
<!DOCTYPE ffml SYSTEM "Ffml.dtd">
<ffml version="1.0">
<forcefield name="MMFF" derivedFrom="MMFF" base="MMFF">
<atomTypes>
<atomType
name="C100"
element="C"
mass="12.011"
annotation=""/>
<atomType
name="O101"
element="O"
mass="16"
annotation=""/>
<atomType
name="S102"
element="S"
mass="32.066"
annotation=""/>
<atomType
name="H103"
element="H"
mass="1.008"
annotation=""/>
</atomTypes>
<parameters>
</parameters>
</forcefield>
</ffml>

> <REMARK99>
REMARK  99  MacroMolecule created from Mol2 file
REMARK  99  1I7I AZ2 109
REMARK  99  PROTEIN
REMARK  99  USER_CHARGES
REMARK  99
REMARK  99

> <Initial Potential Energy>
97.5699691772461

> <Initial RMS Gradient>
11.9820499420166

> <Minimization Criteria>
 CONJUG> Minimization exiting with gradient tolerance ( 0.0100000) satisfied.

> <CHARMm Energy>
51.0366897583008

> <Potential Energy>
51.0366897583008

> <RMS Gradient>
0.0099499998614192

> <Bond Energy>
4.77513980865479

> <Angle Energy>
15.7717304229736

> <STRBend>
0.47817000746727

> <Dihedral Energy>
3.57288002967834

> <OOPLane>
0.0776199996471405

> <Van der Waals Energy>
48.7261581420898

> <Electrostatic Energy>
-22.3650207519531

> <Hydrogen Bond Energy>
0

> <Solvation Free Energy>
0

> <HasGasteigerCharges>
true

$$$$
1KNU_YPA_108
  SciTegic05202517373D

 55 58  0  0  0  0            999 V2000
   11.5378   64.5402   10.1969 C   0  0
   12.4090   65.3181    9.4266 C   0  0
   13.7826   65.3568    9.7442 C   0  0
   14.2375   64.6059   10.8278 C   0  0
   13.3711   63.8198   11.6064 C   0  0
   12.0150   63.8029   11.2740 C   0  0
   14.9112   66.0293    9.1780 C   0  0
   16.0320   65.6853    9.9351 C   0  0
   15.5994   64.8119   10.9131 N   0  0
   15.0766   66.9022    8.0829 C   0  0
   16.3484   67.4016    7.7835 C   0  0
   17.4497   67.0512    8.5602 C   0  0
   17.3136   66.1883    9.6499 C   0  0
   16.4742   64.1546   11.8680 C   0  0
   16.8602   62.7493   11.4056 C   0  0
   18.1263   62.3367   11.9287 O   0  0
   18.2352   62.2250   13.2848 C   0  0
   19.5116   62.4653   13.7898 C   0  0
   19.7457   62.4084   15.1612 C   0  0
   18.7078   62.0914   16.0447 C   0  0
   17.4333   61.8260   15.5308 C   0  0
   17.1998   61.8830   14.1537 C   0  0
   18.9719   62.0305   17.5303 C   0  0
   18.7903   63.3803   18.2292 C   0  0  1  0  0  0
   18.9461   63.1461   19.7354 C   0  0
   20.1208   63.6513   20.2085 O   0  0
   18.1505   62.5552   20.4497 O   0  0
   19.8678   64.2824   17.8672 O   0  0
   19.4174   65.6252   17.6402 C   0  0
   18.8043   65.7884   16.2616 C   0  0
   10.4797   64.5138    9.9458 H   0  0
   12.0266   65.8890    8.5857 H   0  0
   13.7302   63.2421   12.4520 H   0  0
   11.3260   63.2047   11.8658 H   0  0
   14.2248   67.1818    7.4692 H   0  0
   16.4745   68.0686    6.9335 H   0  0
   18.4280   67.4531    8.3040 H   0  0
   18.1759   65.9207   10.2557 H   0  0
   17.3589   64.7816   12.0199 H   0  0
   15.9573   64.1307   12.8335 H   0  0
   16.0795   62.0106   11.6209 H   0  0
   16.9805   62.7387   10.3154 H   0  0
   20.3276   62.7084   13.1136 H   0  0
   20.7458   62.6113   15.5386 H   0  0
   16.6178   61.5534   16.1986 H   0  0
   16.2075   61.6399   13.7893 H   0  0
   18.3088   61.2777   17.9768 H   0  0
   19.9930   61.6569   17.6887 H   0  0
   17.8063   63.8234   18.0399 H   0  0
   20.5644   64.0639   19.4259 H   0  0
   18.7228   65.9345   18.4294 H   0  0
   20.3000   66.2686   17.7129 H   0  0
   18.5279   66.8319   16.0856 H   0  0
   17.9087   65.1718   16.1444 H   0  0
   19.5130   65.4793   15.4870 H   0  0
  1  2  2  0
  1  6  1  0
  1 31  1  0
  2  3  1  0
  2 32  1  0
  3  4  2  0
  3  7  1  0
  4  5  1  0
  4  9  1  0
  5  6  2  0
  5 33  1  0
  6 34  1  0
  7  8  2  0
  7 10  1  0
  8  9  1  0
  8 13  1  0
  9 14  1  0
 10 11  2  0
 10 35  1  0
 11 12  1  0
 11 36  1  0
 12 13  2  0
 12 37  1  0
 13 38  1  0
 14 15  1  0
 14 39  1  0
 14 40  1  0
 15 16  1  0
 15 41  1  0
 15 42  1  0
 16 17  1  0
 17 18  2  0
 17 22  1  0
 18 19  1  0
 18 43  1  0
 19 20  2  0
 19 44  1  0
 20 21  1  0
 20 23  1  0
 21 22  2  0
 21 45  1  0
 22 46  1  0
 23 24  1  0
 23 47  1  0
 23 48  1  0
 24 25  1  0
 24 28  1  0
 24 49  1  0
 25 26  1  0
 25 27  2  0
 26 50  1  0
 28 29  1  0
 29 30  1  0
 29 51  1  0
 29 52  1  0
 30 53  1  0
 30 54  1  0
 30 55  1  0
M  END
> <Name>
1KNU_YPA_108

> <Forcefield>
MMFF

> <ForcefieldBase>
MMFF

> <ForcefieldFFML>
<?xml version="1.0" encoding="UTF-8"?>
<!DOCTYPE ffml SYSTEM "Ffml.dtd">
<ffml version="1.0">
<forcefield name="MMFF" derivedFrom="MMFF" base="MMFF">
<atomTypes>
<atomType
name="C100"
element="C"
mass="12.011"
annotation=""/>
<atomType
name="N101"
element="N"
mass="14.007"
annotation=""/>
<atomType
name="O102"
element="O"
mass="16"
annotation=""/>
<atomType
name="H103"
element="H"
mass="1.008"
annotation=""/>
</atomTypes>
<parameters>
</parameters>
</forcefield>
</ffml>

> <Initial Potential Energy>
127.082710266113

> <Initial RMS Gradient>
13.6464500427246

> <Minimization Criteria>
 STEEPD> Minimization exiting with gradient tolerance ( 3.0000000) satisfied.

> <CHARMm Energy>
70.3253326416016

> <Potential Energy>
70.3253326416016

> <RMS Gradient>
0.058449998497963

> <Bond Energy>
6.30663013458252

> <Angle Energy>
12.892970085144

> <STRBend>
-0.607800006866455

> <Dihedral Energy>
1.52245998382568

> <OOPLane>
0.0285000000149012

> <Van der Waals Energy>
59.4006385803223

> <Electrostatic Energy>
-9.21805953979492

> <Hydrogen Bond Energy>
0

> <Solvation Free Energy>
0

> <HasGasteigerCharges>
true

$$$$
1NYX_DRF_117
  SciTegic05202517373D

 55 58  0  0  0  0            999 V2000
   18.2333   64.0611   20.8386 O   0  0
   18.7558   63.0583   20.2596 C   0  0
   19.3210   62.0618   20.8001 O   0  5
   18.6785   63.0802   18.7072 C   0  0  1  0  0  0
   19.8777   63.6520   18.1119 O   0  0
   20.0426   65.0236   18.4655 C   0  0
   21.1627   65.5948   17.6168 C   0  0
   18.5353   61.6317   18.2355 C   0  0
   17.9714   61.5267   16.8348 C   0  0
   18.8078   61.6993   15.7251 C   0  0
   18.2969   61.5725   14.4382 C   0  0
   16.9416   61.3003   14.2656 C   0  0
   16.4255   61.1325   13.0144 O   0  0
   16.2787   62.3985   12.3552 C   0  0
   16.0936   62.0856   10.8763 C   0  0
   15.8397   63.2762   10.0482 N   0  0
   14.5271   63.7563    9.8941 C   0  0
   14.3140   64.8352    9.0155 C   0  0
   15.3453   65.4482    8.3308 O   0  0
   16.6344   65.1031    8.6870 C   0  0
   16.9186   64.0186    9.5367 C   0  0
   18.2651   63.7837    9.8545 C   0  0
   19.2865   64.5963    9.3513 C   0  0
   18.9814   65.6531    8.5009 C   0  0
   17.6530   65.9066    8.1683 C   0  0
   13.0372   65.3602    8.8021 C   0  0
   11.9475   64.8322    9.4887 C   0  0
   12.1386   63.7889   10.3906 C   0  0
   13.4174   63.2589   10.5950 C   0  0
   16.0975   61.1195   15.3557 C   0  0
   16.6120   61.2440   16.6423 C   0  0
   17.8089   63.6716   18.3919 H   0  0
   19.1183   65.5803   18.2760 H   0  0
   20.3138   65.1101   19.5221 H   0  0
   21.3316   66.6494   17.8515 H   0  0
   20.9241   65.5032   16.5519 H   0  0
   22.0932   65.0420   17.7834 H   0  0
   19.5081   61.1216   18.2493 H   0  0
   17.8794   61.0619   18.9071 H   0  0
   19.8617   61.9252   15.8759 H   0  0
   18.9564   61.6809   13.5843 H   0  0
   15.4033   62.9142   12.7660 H   0  0
   17.1532   63.0439   12.4990 H   0  0
   16.9644   61.5291   10.5038 H   0  0
   15.2883   61.3490   10.7495 H   0  0
   18.5559   63.0013   10.5521 H   0  0
   20.3146   64.4089    9.6528 H   0  0
   19.7716   66.2860    8.1048 H   0  0
   17.4046   66.7402    7.5199 H   0  0
   12.9008   66.1881    8.1130 H   0  0
   10.9543   65.2436    9.3330 H   0  0
   11.2932   63.3895   10.9449 H   0  0
   13.5237   62.4765   11.3434 H   0  0
   15.0493   60.8827   15.2086 H   0  0
   15.9595   61.1071   17.5020 H   0  0
  1  2  2  0
  2  3  1  0
  2  4  1  0
  4  5  1  0
  4  8  1  0
  4 32  1  0
  5  6  1  0
  6  7  1  0
  6 33  1  0
  6 34  1  0
  7 35  1  0
  7 36  1  0
  7 37  1  0
  8  9  1  0
  8 38  1  0
  8 39  1  0
  9 10  2  0
  9 31  1  0
 10 11  1  0
 10 40  1  0
 11 12  2  0
 11 41  1  0
 12 13  1  0
 12 30  1  0
 13 14  1  0
 14 15  1  0
 14 42  1  0
 14 43  1  0
 15 16  1  0
 15 44  1  0
 15 45  1  0
 16 17  1  0
 16 21  1  0
 17 18  2  0
 17 29  1  0
 18 19  1  0
 18 26  1  0
 19 20  1  0
 20 21  2  0
 20 25  1  0
 21 22  1  0
 22 23  2  0
 22 46  1  0
 23 24  1  0
 23 47  1  0
 24 25  2  0
 24 48  1  0
 25 49  1  0
 26 27  2  0
 26 50  1  0
 27 28  1  0
 27 51  1  0
 28 29  2  0
 28 52  1  0
 29 53  1  0
 30 31  2  0
 30 54  1  0
 31 55  1  0
M  CHG  1   3  -1
M  END
> <Name>
1NYX_DRF_117

> <Forcefield>
MMFF

> <ForcefieldBase>
MMFF

> <ForcefieldFFML>
<?xml version="1.0" encoding="UTF-8"?>
<!DOCTYPE ffml SYSTEM "Ffml.dtd">
<ffml version="1.0">
<forcefield name="MMFF" derivedFrom="MMFF" base="MMFF">
<atomTypes>
<atomType
name="O100"
element="O"
mass="16"
annotation=""/>
<atomType
name="C101"
element="C"
mass="12.011"
annotation=""/>
<atomType
name="N102"
element="N"
mass="14.007"
annotation=""/>
<atomType
name="H103"
element="H"
mass="1.008"
annotation=""/>
</atomTypes>
<parameters>
</parameters>
</forcefield>
</ffml>

> <REMARK99>
REMARK  99  MacroMolecule created from Mol2 file
REMARK  99  1NYX DRF 117
REMARK  99  PROTEIN
REMARK  99  USER_CHARGES
REMARK  99
REMARK  99

> <Initial Potential Energy>
262.806182861328

> <Initial RMS Gradient>
37.8719787597656

> <Minimization Criteria>
 CONJUG> Minimization exiting with gradient tolerance ( 0.0100000) satisfied.

> <CHARMm Energy>
152.084182739258

> <Potential Energy>
152.084182739258

> <RMS Gradient>
0.00824000034481287

> <Bond Energy>
6.0375599861145

> <Angle Energy>
16.7740898132324

> <STRBend>
1.67539000511169

> <Dihedral Energy>
11.7678499221802

> <OOPLane>
0.153630003333092

> <Van der Waals Energy>
71.0248565673828

> <Electrostatic Energy>
44.650821685791

> <Hydrogen Bond Energy>
0

> <Solvation Free Energy>
0

> <HasGasteigerCharges>
true

$$$$
1ZGY_BRL_100
  SciTegic05202517373D

 44 46  0  0  0  0            999 V2000
   33.0218   -2.4813   27.6341 S   0  0
   34.5853   -4.3087   28.7173 O   0  0
   33.5463   -4.3658   24.3086 O   0  0
   30.4300    3.3545   26.2633 O   0  0
   34.1007   -4.5068   26.5017 N   0  0
   28.7536    4.9933   28.2848 N   0  0
   26.5864    4.0604   28.3808 N   0  0
   34.0164   -3.9072   27.7141 C   0  0
   33.4599   -3.9257   25.4493 C   0  0
   32.6604   -2.7082   25.8540 C   0  0  2  0  0  0
   33.0593   -1.5159   24.9809 C   0  0
   32.3223   -0.2365   25.2966 C   0  0
   30.9327   -0.1435   25.1388 C   0  0
   30.2550    1.0403   25.4527 C   0  0
   30.9611    2.1459   25.9200 C   0  0
   32.3480    2.0638   26.0571 C   0  0
   33.0268    0.8842   25.7494 C   0  0
   29.0004    3.4727   26.2936 C   0  0
   28.6473    4.8709   26.8163 C   0  0
   30.1030    4.8841   28.8366 C   0  0
   27.6789    4.5230   29.0358 C   0  0
   25.5119    3.6540   29.0985 C   0  0
   25.4791    3.6179   30.4761 C   0  0
   26.5927    4.0785   31.1560 C   0  0
   27.6895    4.5484   30.4322 C   0  0
   34.6606   -5.3415   26.3809 H   0  0
   31.5979   -2.9520   25.7497 H   0  0
   34.1442   -1.3523   25.0428 H   0  0
   32.8704   -1.7529   23.9247 H   0  0
   30.3598   -0.9910   24.7691 H   0  0
   29.1787    1.0670   25.3185 H   0  0
   32.9052    2.9269   26.4129 H   0  0
   34.1076    0.8503   25.8713 H   0  0
   28.6198    3.3770   25.2700 H   0  0
   28.5635    2.6938   26.9286 H   0  0
   27.6422    5.1548   26.4806 H   0  0
   29.3254    5.6073   26.3655 H   0  0
   30.2175    5.4990   29.7350 H   0  0
   30.8485    5.2562   28.1247 H   0  0
   30.3507    3.8444   29.0777 H   0  0
   24.6513    3.3445   28.5120 H   0  0
   24.5986    3.2729   31.0055 H   0  0
   26.5941    4.1175   32.2426 H   0  0
   28.5222    4.9666   30.9857 H   0  0
  1  8  1  0
  1 10  1  0
  2  8  2  0
  3  9  2  0
  4 15  1  0
  4 18  1  0
  5  8  1  0
  5  9  1  0
  5 26  1  0
  6 19  1  0
  6 20  1  0
  6 21  1  0
  7 21  2  0
  7 22  1  0
  9 10  1  0
 10 11  1  0
 10 27  1  0
 11 12  1  0
 11 28  1  0
 11 29  1  0
 12 13  2  0
 12 17  1  0
 13 14  1  0
 13 30  1  0
 14 15  2  0
 14 31  1  0
 15 16  1  0
 16 17  2  0
 16 32  1  0
 17 33  1  0
 18 19  1  0
 18 34  1  0
 18 35  1  0
 19 36  1  0
 19 37  1  0
 20 38  1  0
 20 39  1  0
 20 40  1  0
 21 25  1  0
 22 23  2  0
 22 41  1  0
 23 24  1  0
 23 42  1  0
 24 25  2  0
 24 43  1  0
 25 44  1  0
M  END
> <Name>
1ZGY_BRL_100

> <Forcefield>
MMFF

> <ForcefieldBase>
MMFF

> <ForcefieldFFML>
<?xml version="1.0" encoding="UTF-8"?>
<!DOCTYPE ffml SYSTEM "Ffml.dtd">
<ffml version="1.0">
<forcefield name="MMFF" derivedFrom="MMFF" base="MMFF">
<atomTypes>
<atomType
name="S100"
element="S"
mass="32.066"
annotation=""/>
<atomType
name="O101"
element="O"
mass="16"
annotation=""/>
<atomType
name="N102"
element="N"
mass="14.007"
annotation=""/>
<atomType
name="C103"
element="C"
mass="12.011"
annotation=""/>
<atomType
name="H104"
element="H"
mass="1.008"
annotation=""/>
</atomTypes>
<parameters>
</parameters>
</forcefield>
</ffml>

> <REMARK99>
REMARK  99  MacroMolecule created from Mol2 file
REMARK  99  1ZGY BRL 100
REMARK  99  PROTEIN
REMARK  99  USER_CHARGES
REMARK  99
REMARK  99

> <Initial Potential Energy>
13.0201597213745

> <Initial RMS Gradient>
15.3576402664185

> <Minimization Criteria>
 CONJUG> Minimization exiting with gradient tolerance ( 0.0100000) satisfied.

> <CHARMm Energy>
-47.0928916931152

> <Potential Energy>
-47.0928916931152

> <RMS Gradient>
0.00944000016897917

> <Bond Energy>
3.64719009399414

> <Angle Energy>
16.8740692138672

> <STRBend>
0.367439985275269

> <Dihedral Energy>
6.72909021377563

> <OOPLane>
1.65393996238708

> <Van der Waals Energy>
46.0392913818359

> <Electrostatic Energy>
-122.403907775879

> <Hydrogen Bond Energy>
0

> <Solvation Free Energy>
0

> <HasGasteigerCharges>
true

$$$$
6ICJ_A0L_93
  SciTegic05202517373D

 75 79  0  0  0  0            999 V2000
  -22.3965  -15.5493    8.6491 C   0  0
  -23.3662  -12.2293    9.4605 C   0  0
  -24.1467  -11.5595    8.3140 C   0  0
  -25.5459  -19.0431   11.7738 C   0  0
  -25.0850  -20.8183   13.4977 C   0  0
  -23.8364  -22.8455   13.0102 C   0  0
  -24.3180  -21.2398   11.2530 C   0  0
  -30.1410  -21.3866    7.4748 C   0  0
  -29.4145  -20.8937    8.7159 C   0  0
  -28.1171  -20.1702    8.3547 C   0  0
  -27.3788  -19.6987    9.6080 C   0  0
  -26.0488  -19.0011    9.3276 C   0  0
  -24.5383  -18.1283    7.8305 C   0  0
  -23.6829  -17.7167    8.7808 C   0  0
  -22.3586  -17.0328    8.5708 C   0  0
  -22.7330  -13.5055    8.9665 C   0  0
  -22.2932  -11.2490    9.9770 C   0  0
  -24.3456  -12.5119   10.6185 C   0  0
  -24.0428  -18.0047   10.1892 C   0  0
  -24.9722  -20.3968   12.1642 C   0  0
  -24.5278  -22.0315   13.9146 C   0  0
  -23.7574  -22.4456   11.6711 C   0  0
  -23.1698  -24.0782   13.4366 C   0  0
  -21.8884  -24.0829   14.0198 C   0  0
  -21.2296  -25.2848   14.3055 C   0  0
  -21.8528  -26.5003   14.0286 C   0  0
  -23.1265  -26.5144   13.4629 C   0  0
  -23.7784  -25.3159   13.1695 C   0  0
  -21.1727  -22.8313   14.3093 C   0  0
  -20.6908  -20.9015   15.0732 C   0  0
  -24.3104  -17.9019    6.3591 C   0  0
  -25.7172  -18.7701    8.0992 N   0  0
  -23.2440  -14.7485    9.2546 N   0  0
  -21.6468  -13.5223    8.1775 N   0  0
  -25.2486  -18.6542   10.3957 N   0  0
  -19.9944  -22.5077   13.7216 N   0  0
  -21.6068  -21.9339   15.1482 N   0  0
  -21.4124  -14.8826    7.9783 O   0  0
  -23.2546  -17.7214   11.0896 O   0  0
  -19.6928  -21.2280   14.1670 O   0  0
  -20.7324  -19.8474   15.6886 O   0  0
  -24.6314  -10.6354    8.6488 H   0  0
  -24.9266  -12.2243    7.9240 H   0  0
  -23.4870  -11.3041    7.4763 H   0  0
  -26.6284  -19.0628   11.9322 H   0  0
  -25.1372  -18.2853   12.4539 H   0  0
  -25.5807  -20.1894   14.2349 H   0  0
  -24.2066  -20.9703   10.2062 H   0  0
  -31.0668  -21.8982    7.7559 H   0  0
  -29.5209  -22.0921    6.9125 H   0  0
  -30.3995  -20.5533    6.8140 H   0  0
  -30.0727  -20.2193    9.2759 H   0  0
  -29.1959  -21.7485    9.3665 H   0  0
  -27.4714  -20.8429    7.7763 H   0  0
  -28.3430  -19.3115    7.7102 H   0  0
  -28.0138  -18.9972   10.1624 H   0  0
  -27.1938  -20.5626   10.2553 H   0  0
  -21.9368  -17.3264    7.6015 H   0  0
  -21.6234  -17.3996    9.2983 H   0  0
  -21.6992  -11.6998   10.7809 H   0  0
  -22.7480  -10.3327   10.3704 H   0  0
  -21.5988  -10.9539    9.1818 H   0  0
  -23.8373  -12.9994   11.4590 H   0  0
  -25.1632  -13.1700   10.3017 H   0  0
  -24.7963  -11.5859   10.9938 H   0  0
  -24.5963  -22.3175   14.9631 H   0  0
  -23.2360  -23.0667   10.9449 H   0  0
  -20.2415  -25.2808   14.7582 H   0  0
  -21.3485  -27.4359   14.2571 H   0  0
  -23.6161  -27.4611   13.2452 H   0  0
  -24.7666  -25.3434   12.7127 H   0  0
  -24.0016  -18.8359    5.8785 H   0  0
  -23.5560  -17.1395    6.1496 H   0  0
  -25.2359  -17.5618    5.8804 H   0  0
  -19.6066  -22.8707   12.8617 H   0  0
  1 15  1  0
  1 33  2  0
  1 38  1  0
  2  3  1  0
  2 16  1  0
  2 17  1  0
  2 18  1  0
  3 42  1  0
  3 43  1  0
  3 44  1  0
  4 20  1  0
  4 35  1  0
  4 45  1  0
  4 46  1  0
  5 20  2  0
  5 21  1  0
  5 47  1  0
  6 21  2  0
  6 22  1  0
  6 23  1  0
  7 20  1  0
  7 22  2  0
  7 48  1  0
  8  9  1  0
  8 49  1  0
  8 50  1  0
  8 51  1  0
  9 10  1  0
  9 52  1  0
  9 53  1  0
 10 11  1  0
 10 54  1  0
 10 55  1  0
 11 12  1  0
 11 56  1  0
 11 57  1  0
 12 32  2  0
 12 35  1  0
 13 14  2  0
 13 31  1  0
 13 32  1  0
 14 15  1  0
 14 19  1  0
 15 58  1  0
 15 59  1  0
 16 33  1  0
 16 34  2  0
 17 60  1  0
 17 61  1  0
 17 62  1  0
 18 63  1  0
 18 64  1  0
 18 65  1  0
 19 35  1  0
 19 39  2  0
 21 66  1  0
 22 67  1  0
 23 24  2  0
 23 28  1  0
 24 25  1  0
 24 29  1  0
 25 26  2  0
 25 68  1  0
 26 27  1  0
 26 69  1  0
 27 28  2  0
 27 70  1  0
 28 71  1  0
 29 36  1  0
 29 37  2  0
 30 37  1  0
 30 40  1  0
 30 41  2  0
 31 72  1  0
 31 73  1  0
 31 74  1  0
 34 38  1  0
 36 40  1  0
 36 75  1  0
M  END
> <Name>
6ICJ_A0L_93

> <Forcefield>
MMFF

> <ForcefieldBase>
MMFF

> <ForcefieldFFML>
<?xml version="1.0" encoding="UTF-8"?>
<!DOCTYPE ffml SYSTEM "Ffml.dtd">
<ffml version="1.0">
<forcefield name="MMFF" derivedFrom="MMFF" base="MMFF">
<atomTypes>
<atomType
name="C100"
element="C"
mass="12.011"
annotation=""/>
<atomType
name="N101"
element="N"
mass="14.007"
annotation=""/>
<atomType
name="O102"
element="O"
mass="16"
annotation=""/>
<atomType
name="H103"
element="H"
mass="1.008"
annotation=""/>
</atomTypes>
<parameters>
</parameters>
</forcefield>
</ffml>

> <Initial Potential Energy>
146.842575073242

> <Initial RMS Gradient>
26.0507202148438

> <Minimization Criteria>
 STEEPD> Minimization exiting with gradient tolerance ( 3.0000000) satisfied.

> <CHARMm Energy>
47.3511085510254

> <Potential Energy>
47.3511085510254

> <RMS Gradient>
0.0760300010442734

> <Bond Energy>
7.91324996948242

> <Angle Energy>
22.5932807922363

> <STRBend>
-0.166470006108284

> <Dihedral Energy>
8.5926399230957

> <OOPLane>
1.12222003936768

> <Van der Waals Energy>
68.5526733398438

> <Electrostatic Energy>
-61.2564811706543

> <Hydrogen Bond Energy>
0

> <Solvation Free Energy>
0

> <HasGasteigerCharges>
true

$$$$
4e4k_RRG_33
  DSViewer          3D                             0

 50 52  0  0  0  0  0  0  0  0999 V2000
   18.6460   15.3340   14.6298 C   0  0
   19.4220   15.0310   13.3450 C   0  0
   19.4970   13.5198   13.0972 C   0  0
   20.8079   15.6762   13.3752 C   0  0
   21.7735   15.1997   14.2940 C   0  0
   23.0598   15.7398   14.3552 C   0  0
   23.4022   16.7770   13.4971 C   0  0
   22.4575   17.2719   12.5881 C   0  0
   21.1524   16.7430   12.5085 C   0  0
   20.2087   17.3096   11.5223 C   0  0
   19.1754   18.1782   11.9103 C   0  0
   18.2364   18.6610   10.9807 C   0  0
   20.2888   16.9580   10.1679 C   0  0
   19.3534   17.4442    9.2433 C   0  0
   18.3208   18.2995    9.6398 C   0  0
   17.4629   18.6626    8.6390 O   0  0
   16.5751   19.8025    8.8272 C   0  0  2  0  0  0
   15.1684   19.3096    9.2907 C   0  0
   14.3040   19.0794    8.3939 O   0  5
   15.0395   19.2081   10.5509 O   0  0
   16.5161   20.5197    7.4688 C   0  0
   16.0814   21.9674    7.5517 C   0  0
   14.7228   22.3036    7.5130 C   0  0
   14.3205   23.6369    7.6003 C   0  0
   15.2724   24.6471    7.7307 C   0  0
   16.6271   24.3232    7.7796 C   0  0
   17.0300   22.9894    7.6921 C   0  0
   18.5685   16.4142   14.7954 H   0  0
   19.1256   14.8951   15.5114 H   0  0
   17.6293   14.9309   14.5694 H   0  0
   18.8348   15.4361   12.5152 H   0  0
   20.0619   13.3016   12.1841 H   0  0
   18.4914   13.1021   12.9767 H   0  0
   19.9762   12.9862   13.9247 H   0  0
   21.5105   14.3940   14.9741 H   0  0
   23.7826   15.3535   15.0706 H   0  0
   24.3947   17.2152   13.5291 H   0  0
   22.7386   18.0934   11.9300 H   0  0
   19.0655   18.4629   12.9544 H   0  0
   17.4223   19.2824   11.3446 H   0  0
   21.0648   16.2769    9.8266 H   0  0
   19.4181   17.1411    8.2016 H   0  0
   16.9933   20.4978    9.5655 H   0  0
   17.5126   20.4914    7.0050 H   0  0
   15.8811   19.9852    6.7508 H   0  0
   13.9735   21.5157    7.4320 H   0  0
   13.2617   23.8793    7.5775 H   0  0
   14.9549   25.6830    7.8051 H   0  0
   17.3732   25.1028    7.8984 H   0  0
   18.0877   22.7427    7.7460 H   0  0
  1  2  1  0  0  0
  1 28  1  0  0  0
  1 29  1  0  0  0
  1 30  1  0  0  0
  2  3  1  0  0  0
  2  4  1  0  0  0
  2 31  1  0  0  0
  3 32  1  0  0  0
  3 33  1  0  0  0
  3 34  1  0  0  0
  4  5  2  0  0  0
  4  9  1  0  0  0
  5  6  1  0  0  0
  5 35  1  0  0  0
  6  7  2  0  0  0
  6 36  1  0  0  0
  7  8  1  0  0  0
  7 37  1  0  0  0
  8  9  2  0  0  0
  8 38  1  0  0  0
  9 10  1  0  0  0
 10 11  2  0  0  0
 10 13  1  0  0  0
 11 12  1  0  0  0
 11 39  1  0  0  0
 12 15  2  0  0  0
 12 40  1  0  0  0
 13 14  2  0  0  0
 13 41  1  0  0  0
 14 15  1  0  0  0
 14 42  1  0  0  0
 15 16  1  0  0  0
 16 17  1  0  0  0
 17 18  1  0  0  0
 17 21  1  0  0  0
 17 43  1  0  0  0
 18 19  1  0  0  0
 18 20  2  0  0  0
 21 22  1  0  0  0
 21 44  1  0  0  0
 21 45  1  0  0  0
 22 23  2  0  0  0
 22 27  1  0  0  0
 23 24  1  0  0  0
 23 46  1  0  0  0
 24 25  2  0  0  0
 24 47  1  0  0  0
 25 26  1  0  0  0
 25 48  1  0  0  0
 26 27  2  0  0  0
 26 49  1  0  0  0
 27 50  1  0  0  0
M  CHG  1  19  -1
M  END
> <REMARK99>
REMARK  99  MacroMolecule created from Mol2 file
REMARK  99  4e4k_RRG_33
REMARK  99  PROTEIN
REMARK  99  USER_CHARGES
REMARK  99
REMARK  99

> <Forcefield>
MMFF

> <ForcefieldBase>
MMFF

> <ForcefieldFFML>
<?xml version="1.0" encoding="UTF-8"?>
<!DOCTYPE ffml SYSTEM "Ffml.dtd">
<ffml version="1.0">
<forcefield name="MMFF" derivedFrom="MMFF" base="MMFF">
<atomTypes>
<atomType
name="C100"
element="C"
mass="12.011"
annotation=""/>
<atomType
name="O101"
element="O"
mass="16"
annotation=""/>
<atomType
name="H102"
element="H"
mass="1.008"
annotation=""/>
</atomTypes>
<parameters>
</parameters>
</forcefield>
</ffml>

> <Initial Potential Energy>
262.242

> <Initial RMS Gradient>
35.965

> <Minimization Criteria>
 CONJUG> Minimization exiting with gradient tolerance ( 0.0100000) satisfied.

> <CHARMm Energy>
125.971

> <Potential Energy>
125.971

> <RMS Gradient>
0.00909

> <Bond Energy>
8.71822

> <Angle Energy>
13.2047

> <STRBend>
0.20216

> <Dihedral Energy>
9.83774

> <OOPLane>
0.04476

> <Van der Waals Energy>
57.8947

> <Electrostatic Energy>
36.0689

> <Hydrogen Bond Energy>
0

> <Solvation Free Energy>
0

> <HasGasteigerCharges>
true

$$$$
5gto_T35_30
  SciTegic05202517383D

 79 82  0  0  0  0            999 V2000
  -33.4011   14.2086    9.6036 O   0  5
  -32.3678   13.7721    9.0149 C   0  0
  -31.1817   13.7305    9.4703 O   0  0
  -32.5687   13.1206    7.6066 C   0  0
  -33.3406   11.8328    7.9517 C   0  0
  -31.2966   12.7124    6.8581 C   0  0
  -33.4671   13.8643    6.7449 O   0  0
  -33.1486   15.1035    6.2837 C   0  0
  -32.0911   15.9024    6.7014 C   0  0
  -31.8874   17.1582    6.1255 C   0  0
  -34.0132   15.5826    5.2969 C   0  0
  -33.8180   16.8343    4.7193 C   0  0
  -32.7421   17.6326    5.1211 C   0  0
  -32.5083   18.9288    4.4938 C   0  0
  -31.3099   19.6890    4.4933 C   0  0
  -33.4567   19.5650    3.7849 N   0  0
  -32.8937   20.7391    3.3400 O   0  0
  -31.6049   20.8075    3.7587 C   0  0
  -30.8229   21.9946    3.3507 C   0  0  2  0  0  0
  -31.3526   23.2895    3.9815 C   0  0
  -31.1548   23.3453    5.4893 C   0  0
  -30.9643   22.0696    1.9119 O   0  0
  -29.9890   22.6966    1.2107 C   0  0
  -29.0229   23.2317    1.7505 O   0  0
  -30.2095   22.6859   -0.1656 N   0  0
  -31.3375   21.9227   -0.7071 C   0  0
  -30.9183   20.5249   -1.1145 C   0  0
  -31.0187   19.4498   -0.2214 C   0  0
  -30.5976   18.1748   -0.6062 C   0  0
  -30.0814   17.9540   -1.8806 C   0  0
  -29.9784   19.0138   -2.7773 C   0  0
  -30.3898   20.2917   -2.3952 C   0  0
  -29.4372   23.4002   -1.1070 C   0  0
  -29.7934   23.5129   -2.2802 O   0  0
  -28.2781   23.9632   -0.6093 N   0  0
  -27.2487   24.6333   -1.3065 C   0  0
  -27.2187   24.8127   -2.6915 C   0  0
  -26.1821   25.1190   -0.5363 C   0  0
  -25.1066   25.7721   -1.1419 C   0  0
  -24.0120   26.2816   -0.4961 O   0  0
  -24.0262   26.2510    0.9259 C   0  0
  -25.0897   25.9373   -2.5300 C   0  0
  -26.1426   25.4621   -3.3099 C   0  0
  -26.2363   25.5611   -4.6731 O   0  0
  -25.1890   26.2496   -5.3502 C   0  0
  -33.5483   11.2526    7.0444 H   0  0
  -34.3189   12.0539    8.3956 H   0  0
  -32.7846   11.1939    8.6472 H   0  0
  -31.5395   12.2804    5.8807 H   0  0
  -30.7132   11.9788    7.4256 H   0  0
  -30.6379   13.5647    6.6693 H   0  0
  -31.4187   15.5847    7.4930 H   0  0
  -31.0576   17.7555    6.4917 H   0  0
  -34.8539   14.9695    4.9858 H   0  0
  -34.5056   17.1748    3.9492 H   0  0
  -30.3603   19.4511    4.9486 H   0  0
  -29.7682   21.8393    3.6110 H   0  0
  -30.8447   24.1506    3.5304 H   0  0
  -32.4163   23.4229    3.7458 H   0  0
  -31.4922   24.3119    5.8769 H   0  0
  -30.0984   23.2263    5.7501 H   0  0
  -31.7274   22.5644    5.9988 H   0  0
  -32.1636   21.8631    0.0105 H   0  0
  -31.7596   22.4375   -1.5792 H   0  0
  -31.4306   19.5717    0.7836 H   0  0
  -30.6825   17.3505    0.1008 H   0  0
  -29.7672   16.9566   -2.1782 H   0  0
  -29.5805   18.8467   -3.7752 H   0  0
  -30.2954   21.1094   -3.1083 H   0  0
  -28.1490   23.8664    0.3953 H   0  0
  -28.0184   24.4491   -3.3290 H   0  0
  -26.2038   24.9727    0.5382 H   0  0
  -23.1160   26.7444    1.2800 H   0  0
  -24.0119   25.2207    1.2961 H   0  0
  -24.8825   26.8041    1.3259 H   0  0
  -24.2373   26.4440   -2.9722 H   0  0
  -25.4288   26.2546   -6.4177 H   0  0
  -24.2330   25.7308   -5.2249 H   0  0
  -25.1221   27.2906   -5.0175 H   0  0
  1  2  1  0
  2  3  2  0
  2  4  1  0
  4  5  1  0
  4  6  1  0
  4  7  1  0
  5 46  1  0
  5 47  1  0
  5 48  1  0
  6 49  1  0
  6 50  1  0
  6 51  1  0
  7  8  1  0
  8  9  2  0
  8 11  1  0
  9 10  1  0
  9 52  1  0
 10 13  2  0
 10 53  1  0
 11 12  2  0
 11 54  1  0
 12 13  1  0
 12 55  1  0
 13 14  1  0
 14 15  1  0
 14 16  2  0
 15 18  2  0
 15 56  1  0
 16 17  1  0
 17 18  1  0
 18 19  1  0
 19 20  1  0
 19 22  1  0
 19 57  1  0
 20 21  1  0
 20 58  1  0
 20 59  1  0
 21 60  1  0
 21 61  1  0
 21 62  1  0
 22 23  1  0
 23 24  2  0
 23 25  1  0
 25 26  1  0
 25 33  1  0
 26 27  1  0
 26 63  1  0
 26 64  1  0
 27 28  2  0
 27 32  1  0
 28 29  1  0
 28 65  1  0
 29 30  2  0
 29 66  1  0
 30 31  1  0
 30 67  1  0
 31 32  2  0
 31 68  1  0
 32 69  1  0
 33 34  2  0
 33 35  1  0
 35 36  1  0
 35 70  1  0
 36 37  2  0
 36 38  1  0
 37 43  1  0
 37 71  1  0
 38 39  2  0
 38 72  1  0
 39 40  1  0
 39 42  1  0
 40 41  1  0
 41 73  1  0
 41 74  1  0
 41 75  1  0
 42 43  2  0
 42 76  1  0
 43 44  1  0
 44 45  1  0
 45 77  1  0
 45 78  1  0
 45 79  1  0
M  CHG  1   1  -1
M  END
> <Name>
5gto_T35_30

> <REMARK99>
REMARK  99  MacroMolecule created from Mol2 file
REMARK  99  5gto_T35_30
REMARK  99  PROTEIN
REMARK  99  USER_CHARGES
REMARK  99
REMARK  99

> <Forcefield>
MMFF

> <ForcefieldBase>
MMFF

> <ForcefieldFFML>
<?xml version="1.0" encoding="UTF-8"?>
<!DOCTYPE ffml SYSTEM "Ffml.dtd">
<ffml version="1.0">
<forcefield name="MMFF" derivedFrom="MMFF" base="MMFF">
<atomTypes>
<atomType
name="O100"
element="O"
mass="16"
annotation=""/>
<atomType
name="C101"
element="C"
mass="12.011"
annotation=""/>
<atomType
name="N102"
element="N"
mass="14.007"
annotation=""/>
<atomType
name="H103"
element="H"
mass="1.008"
annotation=""/>
</atomTypes>
<parameters>
</parameters>
</forcefield>
</ffml>

> <Initial Potential Energy>
57.32803

> <Initial RMS Gradient>
15.58481

> <Minimization Criteria>
STEEPD> Minimization exiting with gradient tolerance ( 3.0000000) satisfied.

> <CHARMm Energy>
-3.98527

> <Potential Energy>
-3.98527

> <RMS Gradient>
0.03299

> <Bond Energy>
8.49568

> <Angle Energy>
37.82536

> <STRBend>
0.13319

> <Dihedral Energy>
2.42945

> <OOPLane>
0.1857

> <Van der Waals Energy>
93.32361

> <Electrostatic Energy>
-146.37826

> <Hydrogen Bond Energy>
0

> <Solvation Free Energy>
0

> <HasGasteigerCharges>
true

$$$$
6izm_B0X_36
  SciTegic05202517383D

 51 54  0  0  0  0            999 V2000
    8.7477   48.2739   57.7713 C   0  0
    7.4364   48.5455   57.3711 C   0  0
    7.0183   49.8680   57.1735 C   0  0
    7.8958   50.9250   57.4283 C   0  0
    9.1998   50.6554   57.8368 C   0  0
    9.6274   49.3339   57.9940 C   0  0
   12.2035   47.1916   61.0907 C   0  0
   11.0917   46.5744   61.6531 C   0  0
   10.2907   46.2717   60.5739 N   0  0
   10.9246   46.7116   59.4304 C   0  0
   12.0833   47.2717   59.7290 N   0  0
   12.0233   46.8244   63.8504 C   0  0
   10.9651   46.3869   63.0364 C   0  0
   13.2469   47.6362   61.9180 C   0  0
   13.1528   47.4429   63.3029 C   0  0
   14.7757   45.2386   66.8449 C   0  0
   15.0538   46.2784   67.7270 C   0  0
   14.3082   47.4091   67.7782 N   0  0
   13.2469   47.5181   66.9353 C   0  0
   12.9264   46.5271   66.0091 C   0  0
   13.6946   45.3659   65.9756 C   0  0
   11.8198   46.6578   65.2073 O   0  0
    9.0086   45.6100   60.6336 C   0  0
   10.4035   46.5506   58.0375 C   0  0
    9.0271   46.9458   57.9396 O   0  0
    5.6418   50.1834   56.7272 C   0  0
    5.0082   51.1400   57.1365 O   0  0
    5.1826   49.3373   55.7797 O   0  0
   16.2121   46.1748   68.6746 C   0  0
   12.4307   48.7718   67.0407 C   0  0
    6.7421   47.7205   57.2292 H   0  0
    7.5645   51.9550   57.3072 H   0  0
    9.8885   51.4692   58.0559 H   0  0
   10.6483   49.1755   58.3326 H   0  0
   10.0875   45.9239   63.4742 H   0  0
   14.0971   48.1373   61.4716 H   0  0
   13.9625   47.8023   63.9353 H   0  0
   15.3849   44.3407   66.8324 H   0  0
   13.4507   44.5653   65.2838 H   0  0
    8.9190   44.9189   59.7922 H   0  0
    8.2279   46.3735   60.5951 H   0  0
    8.9302   45.0409   61.5626 H   0  0
   11.0213   47.0823   57.3037 H   0  0
   10.4497   45.4894   57.7678 H   0  0
    5.8524   48.7235   55.4252 H   0  0
   16.2968   47.0787   69.2862 H   0  0
   17.1461   46.0515   68.1176 H   0  0
   16.0766   45.3202   69.3446 H   0  0
   12.4689   49.3314   66.1012 H   0  0
   12.8154   49.4195   67.8354 H   0  0
   11.3899   48.5304   67.2771 H   0  0
  1  2  2  0
  1  6  1  0
  1 25  1  0
  2  3  1  0
  2 31  1  0
  3  4  2  0
  3 26  1  0
  4  5  1  0
  4 32  1  0
  5  6  2  0
  5 33  1  0
  6 34  1  0
  7  8  2  0
  7 11  1  0
  7 14  1  0
  8  9  1  0
  8 13  1  0
  9 10  1  0
  9 23  1  0
 10 11  2  0
 10 24  1  0
 12 13  2  0
 12 15  1  0
 12 22  1  0
 13 35  1  0
 14 15  2  0
 14 36  1  0
 15 37  1  0
 16 17  2  0
 16 21  1  0
 16 38  1  0
 17 18  1  0
 17 29  1  0
 18 19  2  0
 19 20  1  0
 19 30  1  0
 20 21  2  0
 20 22  1  0
 21 39  1  0
 23 40  1  0
 23 41  1  0
 23 42  1  0
 24 25  1  0
 24 43  1  0
 24 44  1  0
 26 27  2  0
 26 28  1  0
 28 45  1  0
 29 46  1  0
 29 47  1  0
 29 48  1  0
 30 49  1  0
 30 50  1  0
 30 51  1  0
M  END
> <Name>
6izm_B0X_36

> <REMARK99>
REMARK  99  MacroMolecule created from Mol2 file
REMARK  99  6izm_B0X_36
REMARK  99  PROTEIN
REMARK  99  USER_CHARGES
REMARK  99
REMARK  99

> <Forcefield>
MMFF

> <ForcefieldBase>
MMFF

> <ForcefieldFFML>
<?xml version="1.0" encoding="UTF-8"?>
<!DOCTYPE ffml SYSTEM "Ffml.dtd">
<ffml version="1.0">
<forcefield name="MMFF" derivedFrom="MMFF" base="MMFF">
<atomTypes>
<atomType
name="C100"
element="C"
mass="12.011"
annotation=""/>
<atomType
name="N101"
element="N"
mass="14.007"
annotation=""/>
<atomType
name="O102"
element="O"
mass="16"
annotation=""/>
<atomType
name="H103"
element="H"
mass="1.008"
annotation=""/>
</atomTypes>
<parameters>
</parameters>
</forcefield>
</ffml>

> <Initial Potential Energy>
122.29927

> <Initial RMS Gradient>
18.69839

> <Minimization Criteria>
STEEPD> Minimization exiting with gradient tolerance ( 3.0000000) satisfied.

> <CHARMm Energy>
77.27398

> <Potential Energy>
77.27398

> <RMS Gradient>
0.07793

> <Bond Energy>
4.82539

> <Angle Energy>
18.84958

> <STRBend>
0.49696

> <Dihedral Energy>
10.96666

> <OOPLane>
0.14345

> <Van der Waals Energy>
59.05153

> <Electrostatic Energy>
-17.05959

> <Hydrogen Bond Energy>
0

> <Solvation Free Energy>
0

> <HasGasteigerCharges>
true

$$$$
8cpi_WY1_42
  SciTegic05202517383D

 34 35  0  0  0  0            999 V2000
   28.0130  -13.4918   73.0862 C   0  0
   26.8772  -12.5770   72.6907 C   0  0
   25.5780  -13.1104   72.4526 C   0  0
   25.2782  -14.5826   72.5751 C   0  0
   24.5412  -12.2511   72.0623 C   0  0
   24.7659  -10.8850   71.9436 C   0  0
   26.0303  -10.3575   72.2137 C   0  0
   27.1027  -11.1768   72.5972 C   0  0
   28.3766  -10.6316   72.8704 N   0  0
   29.0334   -9.4593   72.4639 C   0  0
   29.9864   -8.9874   73.2895 N   0  0
   28.7239   -8.8172   71.2899 C   0  0
   29.3803   -7.6344   71.0663 C   0  0
   29.0151   -6.6959   69.6725 Cl  0  0
   30.2667   -7.0792   71.8922 N   0  0
   30.5955   -7.8278   72.9480 C   0  0
   31.6838   -7.0850   74.1444 S   0  0
   33.1651   -8.1241   73.9218 C   0  0
   33.8039   -7.7439   72.5781 C   0  0
   33.3311   -8.3672   71.5791 O   0  0
   34.7678   -6.9225   72.6366 O   0  5
   28.9688  -13.1397   72.6846 H   0  0
   27.8817  -14.5021   72.6881 H   0  0
   28.0814  -13.5478   74.1769 H   0  0
   24.2012  -14.7779   72.5332 H   0  0
   25.6360  -14.9680   73.5352 H   0  0
   25.7524  -15.1328   71.7566 H   0  0
   23.5478  -12.6423   71.8532 H   0  0
   23.9622  -10.2156   71.6531 H   0  0
   26.1532   -9.2791   72.1596 H   0  0
   28.8493  -11.0211   73.6785 H   0  0
   28.0109   -9.2096   70.5815 H   0  0
   33.8625   -7.9238   74.7412 H   0  0
   32.9041   -9.1867   73.9507 H   0  0
  1  2  1  0
  1 22  1  0
  1 23  1  0
  1 24  1  0
  2  3  2  0
  2  8  1  0
  3  4  1  0
  3  5  1  0
  4 25  1  0
  4 26  1  0
  4 27  1  0
  5  6  2  0
  5 28  1  0
  6  7  1  0
  6 29  1  0
  7  8  2  0
  7 30  1  0
  8  9  1  0
  9 10  1  0
  9 31  1  0
 10 11  2  0
 10 12  1  0
 11 16  1  0
 12 13  2  0
 12 32  1  0
 13 14  1  0
 13 15  1  0
 15 16  2  0
 16 17  1  0
 17 18  1  0
 18 19  1  0
 18 33  1  0
 18 34  1  0
 19 20  2  0
 19 21  1  0
M  CHG  1  21  -1
M  END
> <Name>
8cpi_WY1_42

> <REMARK99>
REMARK  99  MacroMolecule created from Mol2 file
REMARK  99  8cpi_WY1_42
REMARK  99  PROTEIN
REMARK  99  USER_CHARGES
REMARK  99
REMARK  99

> <Forcefield>
MMFF

> <ForcefieldBase>
MMFF

> <ForcefieldFFML>
<?xml version="1.0" encoding="UTF-8"?>
<!DOCTYPE ffml SYSTEM "Ffml.dtd">
<ffml version="1.0">
<forcefield name="MMFF" derivedFrom="MMFF" base="MMFF">
<atomTypes>
<atomType
name="C100"
element="C"
mass="12.011"
annotation=""/>
<atomType
name="N101"
element="N"
mass="14.007"
annotation=""/>
<atomType
name="Cl102"
element="Cl"
mass="35.453"
annotation=""/>
<atomType
name="S103"
element="S"
mass="32.066"
annotation=""/>
<atomType
name="O104"
element="O"
mass="16"
annotation=""/>
<atomType
name="H105"
element="H"
mass="1.008"
annotation=""/>
</atomTypes>
<parameters>
</parameters>
</forcefield>
</ffml>

> <Initial Potential Energy>
-17.07303

> <Initial RMS Gradient>
14.85801

> <Minimization Criteria>
CONJUG> Minimization exiting with gradient tolerance ( 0.0100000) satisfied.

> <CHARMm Energy>
-38.84218

> <Potential Energy>
-38.84218

> <RMS Gradient>
0.0094

> <Bond Energy>
3.76619

> <Angle Energy>
9.61229

> <STRBend>
0.47246

> <Dihedral Energy>
13.16731

> <OOPLane>
0.81464

> <Van der Waals Energy>
36.50542

> <Electrostatic Energy>
-103.18049

> <Hydrogen Bond Energy>
0

> <Solvation Free Energy>
0

> <HasGasteigerCharges>
true

$$$$
2yfe_YFE_39
  SciTegic05202517383D

 48 49  0  0  0  0            999 V2000
   18.7962   17.7776   44.6566 C   0  0
   17.2944   17.7351   44.7151 C   0  0
   16.6286   17.4510   43.3962 C   0  0
   16.5579   17.9618   45.8212 C   0  0
   17.0338   18.2693   47.2216 C   0  0
   16.6784   19.6716   47.6792 C   0  0
   15.3959   19.9668   48.1655 C   0  0
   15.1014   21.2678   48.5812 C   0  0
   14.5059   18.9229   48.2165 O   0  0
   13.1463   19.2359   48.4813 C   0  0
   17.6280   20.7124   47.6091 C   0  0
   18.8699   20.3810   47.1111 O   0  0
   17.3560   22.0391   48.0307 C   0  0
   18.4653   23.0860   47.9475 C   0  0
   19.4970   22.7467   47.2728 O   0  5
   18.3305   24.1945   48.5490 O   0  0
   16.0547   22.3097   48.5167 C   0  0
   15.6055   23.6708   49.0114 C   0  0
   15.9173   23.8656   50.4994 C   0  0
   15.4499   25.2113   51.0001 C   0  0
   16.2026   26.3587   50.7147 C   0  0
   15.7767   27.6109   51.1562 C   0  0
   14.5943   27.7246   51.8844 C   0  0
   13.8376   26.5906   52.1752 C   0  0
   14.2627   25.3373   51.7332 C   0  0
   19.2695   17.9986   45.6146 H   0  0
   19.1220   18.5468   43.9483 H   0  0
   19.1844   16.8115   44.3169 H   0  0
   15.5363   17.4417   43.4743 H   0  0
   16.9423   16.4729   43.0168 H   0  0
   16.9024   18.2140   42.6601 H   0  0
   15.4722   17.9370   45.7377 H   0  0
   16.5731   17.5427   47.9042 H   0  0
   18.1049   18.0868   47.3462 H   0  0
   14.1211   21.5097   48.9790 H   0  0
   12.5640   18.3164   48.3670 H   0  0
   12.7563   19.9661   47.7642 H   0  0
   13.0174   19.5827   49.5117 H   0  0
   19.3787   21.2341   47.0333 H   0  0
   16.0157   24.4697   48.3849 H   0  0
   14.5202   23.7629   48.8593 H   0  0
   15.4356   23.0729   51.0875 H   0  0
   16.9895   23.7614   50.7045 H   0  0
   17.1256   26.2689   50.1389 H   0  0
   16.3685   28.4927   50.9267 H   0  0
   14.2627   28.6996   52.2237 H   0  0
   12.9173   26.6838   52.7442 H   0  0
   13.6661   24.4582   51.9612 H   0  0
  1  2  1  0
  1 26  1  0
  1 27  1  0
  1 28  1  0
  2  3  1  0
  2  4  2  0
  3 29  1  0
  3 30  1  0
  3 31  1  0
  4  5  1  0
  4 32  1  0
  5  6  1  0
  5 33  1  0
  5 34  1  0
  6  7  2  0
  6 11  1  0
  7  8  1  0
  7  9  1  0
  8 17  2  0
  8 35  1  0
  9 10  1  0
 10 36  1  0
 10 37  1  0
 10 38  1  0
 11 12  1  0
 11 13  2  0
 12 39  1  0
 13 14  1  0
 13 17  1  0
 14 15  1  0
 14 16  2  0
 17 18  1  0
 18 19  1  0
 18 40  1  0
 18 41  1  0
 19 20  1  0
 19 42  1  0
 19 43  1  0
 20 21  2  0
 20 25  1  0
 21 22  1  0
 21 44  1  0
 22 23  2  0
 22 45  1  0
 23 24  1  0
 23 46  1  0
 24 25  2  0
 24 47  1  0
 25 48  1  0
M  CHG  1  15  -1
M  END
> <Name>
2yfe_YFE_39

> <REMARK99>
REMARK  99  MacroMolecule created from Mol2 file
REMARK  99  2yfe_YFE_39
REMARK  99  PROTEIN
REMARK  99  USER_CHARGES
REMARK  99
REMARK  99

> <Forcefield>
MMFF

> <ForcefieldBase>
MMFF

> <ForcefieldFFML>
<?xml version="1.0" encoding="UTF-8"?>
<!DOCTYPE ffml SYSTEM "Ffml.dtd">
<ffml version="1.0">
<forcefield name="MMFF" derivedFrom="MMFF" base="MMFF">
<atomTypes>
<atomType
name="C100"
element="C"
mass="12.011"
annotation=""/>
<atomType
name="O101"
element="O"
mass="16"
annotation=""/>
<atomType
name="H102"
element="H"
mass="1.008"
annotation=""/>
</atomTypes>
<parameters>
</parameters>
</forcefield>
</ffml>

> <Initial Potential Energy>
136.13873

> <Initial RMS Gradient>
19.36259

> <Minimization Criteria>
CONJUG> Minimization exiting with gradient tolerance ( 0.0100000) satisfied.

> <CHARMm Energy>
67.27821

> <Potential Energy>
67.27821

> <RMS Gradient>
0.00863

> <Bond Energy>
7.55002

> <Angle Energy>
12.40043

> <STRBend>
0.17549

> <Dihedral Energy>
-4.10716

> <OOPLane>
0.02917

> <Van der Waals Energy>
60.96251

> <Electrostatic Energy>
-9.73224

> <Hydrogen Bond Energy>
0

> <Solvation Free Energy>
0

> <HasGasteigerCharges>
true

$$$$
3h0a_D30_34
  SciTegic05202517383D

 68 71  0  0  0  0            999 V2000
   67.7244   -2.1832    0.2628 C   0  0
   69.4564   -3.6405    1.1811 C   0  0
   67.1337   -0.8127    0.0033 C   0  0
   74.8206   -4.1397    3.0236 C   0  0
   68.8495    0.1494    1.5368 C   0  0
   67.5450   -4.5905    0.0120 C   0  0
   73.0846   -3.4136   -1.4598 C   0  0
   76.1566   -3.2541    6.8460 C   0  0
   77.7924   -3.5863   -2.1479 C   0  0
   78.7358   -4.4867   -1.6440 C   0  0
   78.2094   -2.5982   -3.0360 C   0  0
   80.0836   -4.3943   -2.0015 C   0  0
   79.5617   -2.4999   -3.3967 C   0  0
   80.5170   -3.3928   -2.8822 C   0  0
   81.9761   -3.3069   -3.2783 C   0  0
   67.1585   -5.0875   -3.4309 O   0  0
   66.7347   -3.9401   -3.0921 C   0  0
   67.0875   -2.8072   -3.5309 O   0  5
   65.6088   -3.9551   -2.0354 C   0  0
   65.8599   -3.0915   -0.9014 O   0  0
   67.0389   -3.3150   -0.2278 C   0  0
   68.7450   -4.7505    0.7051 C   0  0
   68.1156    0.3336    0.2207 C   0  0
   69.6842   -1.1279    1.4984 C   0  0
   68.9313   -2.3421    0.9946 C   0  0
   70.9956   -3.9783    2.0398 S   0  0
   72.2743   -3.5835    0.8417 C   0  0
   72.0485   -3.6612   -0.5414 C   0  0
   73.5698   -3.2508    1.2809 C   0  0
   73.8454   -3.1609    2.6297 O   0  0
   75.3090   -3.8262    4.3795 C   0  0
   75.7064   -3.5682    5.4832 C   0  0
   77.6315   -2.8901    6.8686 C   0  0
   74.5859   -2.9521    0.3601 C   0  0
   74.3668   -3.0649   -1.0188 C   0  0
   75.5136   -2.8230   -1.9775 C   0  0
   76.5223   -3.7989   -1.6972 O   0  0
   82.3774   -4.3657   -4.0395 F   0  0
   82.8132   -3.2819   -2.2035 F   0  0
   82.2802   -2.1971   -4.0119 F   0  0
   66.7663   -0.7468   -1.0277 H   0  0
   66.2738   -0.6837    0.6727 H   0  0
   74.3465   -5.1286    3.0228 H   0  0
   75.6833   -4.1699    2.3487 H   0  0
   69.5014    1.0087    1.7306 H   0  0
   68.1267    0.1014    2.3611 H   0  0
   67.0285   -5.4745   -0.3484 H   0  0
   72.8667   -3.5043   -2.5229 H   0  0
   75.5699   -2.4204    7.2473 H   0  0
   75.9842   -4.1153    7.5010 H   0  0
   78.3955   -5.2693   -0.9676 H   0  0
   77.4990   -1.9049   -3.4788 H   0  0
   80.7932   -5.1103   -1.5901 H   0  0
   79.8647   -1.7197   -4.0938 H   0  0
   64.7048   -3.5705   -2.5217 H   0  0
   65.3673   -4.9672   -1.6925 H   0  0
   69.1341   -5.7559    0.8462 H   0  0
   68.8386    0.3697   -0.6042 H   0  0
   67.5757    1.2870    0.2167 H   0  0
   70.5498   -0.9660    0.8441 H   0  0
   70.0557   -1.3046    2.5140 H   0  0
   71.0661   -3.9288   -0.9349 H   0  0
   77.9508   -2.6600    7.8900 H   0  0
   77.8323   -2.0133    6.2433 H   0  0
   78.2485   -3.7154    6.4967 H   0  0
   75.5670   -2.6452    0.7167 H   0  0
   75.1844   -2.9317   -3.0170 H   0  0
   75.8827   -1.8026   -1.8160 H   0  0
  1  3  1  0
  1 21  2  0
  1 25  1  0
  2 22  1  0
  2 25  2  0
  2 26  1  0
  3 23  1  0
  3 41  1  0
  3 42  1  0
  4 30  1  0
  4 31  1  0
  4 43  1  0
  4 44  1  0
  5 23  1  0
  5 24  1  0
  5 45  1  0
  5 46  1  0
  6 21  1  0
  6 22  2  0
  6 47  1  0
  7 28  2  0
  7 35  1  0
  7 48  1  0
  8 32  1  0
  8 33  1  0
  8 49  1  0
  8 50  1  0
  9 10  2  0
  9 11  1  0
  9 37  1  0
 10 12  1  0
 10 51  1  0
 11 13  2  0
 11 52  1  0
 12 14  2  0
 12 53  1  0
 13 14  1  0
 13 54  1  0
 14 15  1  0
 15 38  1  0
 15 39  1  0
 15 40  1  0
 16 17  2  0
 17 18  1  0
 17 19  1  0
 19 20  1  0
 19 55  1  0
 19 56  1  0
 20 21  1  0
 22 57  1  0
 23 58  1  0
 23 59  1  0
 24 25  1  0
 24 60  1  0
 24 61  1  0
 26 27  1  0
 27 28  1  0
 27 29  2  0
 28 62  1  0
 29 30  1  0
 29 34  1  0
 31 32  3  0
 33 63  1  0
 33 64  1  0
 33 65  1  0
 34 35  2  0
 34 66  1  0
 35 36  1  0
 36 37  1  0
 36 67  1  0
 36 68  1  0
M  CHG  1  18  -1
M  END
> <Name>
3h0a_D30_34

> <REMARK99>
REMARK  99  MacroMolecule created from Mol2 file
REMARK  99  3h0a_D30_34
REMARK  99  PROTEIN
REMARK  99  USER_CHARGES
REMARK  99
REMARK  99

> <Forcefield>
MMFF

> <ForcefieldBase>
MMFF

> <ForcefieldFFML>
<?xml version="1.0" encoding="UTF-8"?>
<!DOCTYPE ffml SYSTEM "Ffml.dtd">
<ffml version="1.0">
<forcefield name="MMFF" derivedFrom="MMFF" base="MMFF">
<atomTypes>
<atomType
name="C100"
element="C"
mass="12.011"
annotation=""/>
<atomType
name="O101"
element="O"
mass="16"
annotation=""/>
<atomType
name="S102"
element="S"
mass="32.066"
annotation=""/>
<atomType
name="F103"
element="F"
mass="18.998"
annotation=""/>
<atomType
name="H104"
element="H"
mass="1.008"
annotation=""/>
</atomTypes>
<parameters>
</parameters>
</forcefield>
</ffml>

> <Initial Potential Energy>
210.16201

> <Initial RMS Gradient>
15.93924

> <Minimization Criteria>
CONJUG> Minimization exiting with gradient tolerance ( 0.0100000) satisfied.

> <CHARMm Energy>
156.53619

> <Potential Energy>
156.53619

> <RMS Gradient>
0.00924

> <Bond Energy>
9.01335

> <Angle Energy>
20.91202

> <STRBend>
0.86867

> <Dihedral Energy>
5.69492

> <OOPLane>
0.11087

> <Van der Waals Energy>
71.10208

> <Electrostatic Energy>
48.83429

> <Hydrogen Bond Energy>
0

> <Solvation Free Energy>
0

> <HasGasteigerCharges>
true

$$$$
3ho0_DKD_33
  SciTegic05202517383D

 47 49  0  0  0  0            999 V2000
   17.3738   60.4360   16.7507 C   0  0
   16.8234   60.3355   15.4708 C   0  0
   17.2833   61.1594   14.4465 C   0  0
   18.2958   62.0812   14.7040 C   0  0
   18.8474   62.1806   15.9847 C   0  0
   18.3849   61.3705   17.0292 C   0  0
   18.9891   61.4187   18.4257 C   0  0
   19.3819   62.8156   18.9475 C   0  0  1  0  0  0
   19.3518   62.6465   20.4903 C   0  0
   20.1503   61.8022   20.9937 O   0  0
   18.4607   63.3335   21.0791 O   0  5
   20.7095   63.1285   18.4723 O   0  0
   21.1586   64.4126   18.5792 C   0  0
   22.4071   64.6335   17.9927 C   0  0
   22.9954   65.8994   18.0140 C   0  0
   20.5049   65.4734   19.2005 C   0  0
   21.0906   66.7466   19.2234 C   0  0
   22.3403   66.9704   18.6320 C   0  0
   22.9672   68.3423   18.6333 C   0  0
   22.5980   69.1247   17.3697 C   0  0
   23.3821   70.4098   17.2535 C   0  0
   22.9065   71.5900   17.8362 C   0  0
   23.6462   72.7665   17.7408 C   0  0
   24.8661   72.7728   17.0646 C   0  0
   25.3513   71.5992   16.4878 C   0  0
   24.6133   70.4223   16.5831 C   0  0
   17.0091   59.7769   17.5367 H   0  0
   16.0385   59.6090   15.2768 H   0  0
   16.8556   61.0778   13.4513 H   0  0
   18.6662   62.7270   13.9127 H   0  0
   19.6462   62.8987   16.1587 H   0  0
   18.2564   60.9674   19.1088 H   0  0
   19.8680   60.7601   18.4108 H   0  0
   18.6523   63.5608   18.6066 H   0  0
   22.9240   63.8016   17.5213 H   0  0
   23.9688   66.0387   17.5517 H   0  0
   19.5458   65.3370   19.6935 H   0  0
   20.5604   67.5551   19.7209 H   0  0
   22.6539   68.8940   19.5291 H   0  0
   24.0568   68.2357   18.7192 H   0  0
   22.7770   68.5180   16.4719 H   0  0
   21.5228   69.3472   17.3607 H   0  0
   21.9600   71.5833   18.3731 H   0  0
   23.2701   73.6753   18.2008 H   0  0
   25.4422   73.6914   16.9921 H   0  0
   26.3063   71.6035   15.9692 H   0  0
   24.9901   69.4979   16.1482 H   0  0
  1  2  2  0
  1  6  1  0
  1 27  1  0
  2  3  1  0
  2 28  1  0
  3  4  2  0
  3 29  1  0
  4  5  1  0
  4 30  1  0
  5  6  2  0
  5 31  1  0
  6  7  1  0
  7  8  1  0
  7 32  1  0
  7 33  1  0
  8  9  1  0
  8 12  1  0
  8 34  1  0
  9 10  2  0
  9 11  1  0
 12 13  1  0
 13 14  2  0
 13 16  1  0
 14 15  1  0
 14 35  1  0
 15 18  2  0
 15 36  1  0
 16 17  2  0
 16 37  1  0
 17 18  1  0
 17 38  1  0
 18 19  1  0
 19 20  1  0
 19 39  1  0
 19 40  1  0
 20 21  1  0
 20 41  1  0
 20 42  1  0
 21 22  2  0
 21 26  1  0
 22 23  1  0
 22 43  1  0
 23 24  2  0
 23 44  1  0
 24 25  1  0
 24 45  1  0
 25 26  2  0
 25 46  1  0
 26 47  1  0
M  CHG  1  11  -1
M  END
> <Name>
3ho0_DKD_33

> <REMARK99>
REMARK  99  MacroMolecule created from Mol2 file
REMARK  99  3ho0_DKD_33
REMARK  99  PROTEIN
REMARK  99  USER_CHARGES
REMARK  99
REMARK  99

> <Forcefield>
MMFF

> <ForcefieldBase>
MMFF

> <ForcefieldFFML>
<?xml version="1.0" encoding="UTF-8"?>
<!DOCTYPE ffml SYSTEM "Ffml.dtd">
<ffml version="1.0">
<forcefield name="MMFF" derivedFrom="MMFF" base="MMFF">
<atomTypes>
<atomType
name="C100"
element="C"
mass="12.011"
annotation=""/>
<atomType
name="O101"
element="O"
mass="16"
annotation=""/>
<atomType
name="H102"
element="H"
mass="1.008"
annotation=""/>
</atomTypes>
<parameters>
</parameters>
</forcefield>
</ffml>

> <Initial Potential Energy>
137.30195

> <Initial RMS Gradient>
7.38204

> <Minimization Criteria>
CONJUG> Minimization exiting with gradient tolerance ( 0.0100000) satisfied.

> <CHARMm Energy>
113.76274

> <Potential Energy>
113.76274

> <RMS Gradient>
0.00952

> <Bond Energy>
6.0264

> <Angle Energy>
11.15619

> <STRBend>
0.37647

> <Dihedral Energy>
2.91955

> <OOPLane>
0.18085

> <Van der Waals Energy>
55.86348

> <Electrostatic Energy>
37.2398

> <Hydrogen Bond Energy>
0

> <Solvation Free Energy>
0

> <HasGasteigerCharges>
true

$$$$
3hod_ZZH_40
  SciTegic05202517383D

 44 46  0  0  0  0            999 V2000
   19.5971   60.8106   16.6119 C   0  0
   19.5231   59.8281   15.6214 C   0  0
   18.3143   59.1837   15.3642 C   0  0
   17.1774   59.5261   16.0945 C   0  0
   17.2503   60.5099   17.0830 C   0  0
   18.4619   61.1635   17.3529 C   0  0
   18.5400   62.2092   18.4546 C   0  0
   18.9533   63.6072   17.9630 C   0  0  1  0  0  0
   18.3538   64.5864   19.0117 C   0  0
   17.5564   65.4487   18.5294 O   0  5
   18.6927   64.4130   20.2185 O   0  0
   20.4010   63.6795   17.9315 O   0  0
   20.9772   64.8498   17.5195 C   0  0
   22.3298   64.9875   17.8426 C   0  0
   23.0332   66.1497   17.5090 C   0  0
   20.3414   65.8760   16.8257 C   0  0
   21.0412   67.0394   16.4855 C   0  0
   22.3906   67.1928   16.8311 C   0  0
   23.1225   68.4767   16.5131 C   0  0
   23.3996   69.3929   17.6897 C   0  0
   24.5581   70.1857   17.6900 C   0  0
   24.8177   71.0689   18.7404 C   0  0
   23.9204   71.1808   19.8001 C   0  0
   22.7605   70.4113   19.8072 C   0  0
   22.4974   69.5298   18.7558 C   0  0
   20.5462   61.3071   16.8076 H   0  0
   20.4140   59.5749   15.0546 H   0  0
   18.2552   58.4142   14.5991 H   0  0
   16.2326   59.0249   15.8989 H   0  0
   16.3570   60.7698   17.6466 H   0  0
   17.5596   62.2523   18.9476 H   0  0
   19.2510   61.8378   19.2050 H   0  0
   18.5408   63.7856   16.9623 H   0  0
   22.8260   64.1930   18.3933 H   0  0
   24.0740   66.2472   17.8080 H   0  0
   19.2893   65.8161   16.5628 H   0  0
   20.5051   67.8358   15.9749 H   0  0
   24.0704   68.2013   16.0313 H   0  0
   22.5614   69.0510   15.7648 H   0  0
   25.2665   70.1145   16.8684 H   0  0
   25.7203   71.6720   18.7312 H   0  0
   24.1239   71.8674   20.6175 H   0  0
   22.0533   70.4833   20.6294 H   0  0
   21.5813   68.9397   18.7870 H   0  0
  1  2  2  0
  1  6  1  0
  1 26  1  0
  2  3  1  0
  2 27  1  0
  3  4  2  0
  3 28  1  0
  4  5  1  0
  4 29  1  0
  5  6  2  0
  5 30  1  0
  6  7  1  0
  7  8  1  0
  7 31  1  0
  7 32  1  0
  8  9  1  0
  8 12  1  0
  8 33  1  0
  9 10  1  0
  9 11  2  0
 12 13  1  0
 13 14  2  0
 13 16  1  0
 14 15  1  0
 14 34  1  0
 15 18  2  0
 15 35  1  0
 16 17  2  0
 16 36  1  0
 17 18  1  0
 17 37  1  0
 18 19  1  0
 19 20  1  0
 19 38  1  0
 19 39  1  0
 20 21  2  0
 20 25  1  0
 21 22  1  0
 21 40  1  0
 22 23  2  0
 22 41  1  0
 23 24  1  0
 23 42  1  0
 24 25  2  0
 24 43  1  0
 25 44  1  0
M  CHG  1  10  -1
M  END
> <Name>
3hod_ZZH_40

> <REMARK99>
REMARK  99  MacroMolecule created from Mol2 file
REMARK  99  3hod_ZZH_40
REMARK  99  PROTEIN
REMARK  99  USER_CHARGES
REMARK  99
REMARK  99

> <Forcefield>
MMFF

> <ForcefieldBase>
MMFF

> <ForcefieldFFML>
<?xml version="1.0" encoding="UTF-8"?>
<!DOCTYPE ffml SYSTEM "Ffml.dtd">
<ffml version="1.0">
<forcefield name="MMFF" derivedFrom="MMFF" base="MMFF">
<atomTypes>
<atomType
name="C100"
element="C"
mass="12.011"
annotation=""/>
<atomType
name="O101"
element="O"
mass="16"
annotation=""/>
<atomType
name="H102"
element="H"
mass="1.008"
annotation=""/>
</atomTypes>
<parameters>
</parameters>
</forcefield>
</ffml>

> <Initial Potential Energy>
141.22586

> <Initial RMS Gradient>
8.18492

> <Minimization Criteria>
STEEPD> Minimization exiting with gradient tolerance ( 3.0000000) satisfied.

> <CHARMm Energy>
118.32131

> <Potential Energy>
118.32131

> <RMS Gradient>
0.04581

> <Bond Energy>
6.25721

> <Angle Energy>
10.02907

> <STRBend>
0.57154

> <Dihedral Energy>
3.83222

> <OOPLane>
0.0648

> <Van der Waals Energy>
54.98455

> <Electrostatic Energy>
42.58193

> <Hydrogen Bond Energy>
0

> <Solvation Free Energy>
0

> <HasGasteigerCharges>
true

$$$$
3vn2_TLS_43
  SciTegic05202517383D

 68 73  0  0  0  0            999 V2000
   47.0936   19.6610   27.1731 C   0  0
   47.6184   19.4685   25.9087 N   0  0
   46.5248   18.4387   27.4983 C   0  0
   46.9889   20.7846   28.0014 C   0  0
   47.4944   18.1294   25.6013 C   0  0
   48.0400   20.5440   25.0159 C   0  0
   46.8166   17.5029   26.5435 N   0  0
   45.7496   18.3081   28.6645 C   0  0
   46.2401   20.6684   29.1826 C   0  0
   47.9981   17.4743   24.3556 C   0  0
   46.8615   21.4138   24.6539 C   0  0
   45.6026   19.4533   29.4770 C   0  0
   45.0377   17.0395   29.0262 C   0  0
   46.0939   21.8594   30.0314 C   0  0
   49.3683   16.8225   24.5498 C   0  0
   45.7209   20.8541   24.0619 C   0  0
   46.8550   22.7769   24.9717 C   0  0
   46.0317   21.8859   31.4129 N   0  0
   46.0521   23.0956   29.5607 N   0  0
   50.5032   17.8261   24.6961 C   0  0
   44.5675   21.6174   23.8852 C   0  0
   45.6994   23.5395   24.7811 C   0  0
   45.8022   23.1830   31.8151 C   0  0
   46.2622   20.7839   32.3167 C   0  0
   45.8517   23.9155   30.6347 C   0  0
   44.5262   22.9651   24.2667 C   0  0
   45.5786   23.7769   33.0607 C   0  0
   45.7125   25.3107   30.6809 C   0  0
   43.2638   23.7263   24.2070 C   0  0
   45.4208   25.1666   33.0818 C   0  0
   45.4983   25.9273   31.9164 C   0  0
   42.4659   23.8259   23.0469 C   0  0
   42.7827   24.3162   25.4002 C   0  0
   41.2172   24.4751   23.1256 C   0  0
   42.8818   23.2642   21.7081 C   0  0
   41.5523   24.9732   25.4548 C   0  0
   40.7648   25.0436   24.3154 C   0  0
   42.0208   22.5483   21.1013 O   0  0
   44.0359   23.5670   21.2724 O   0  5
   47.4283   21.7376   27.7222 H   0  0
   48.8162   21.1064   25.5476 H   0  0
   48.4955   20.1306   24.1140 H   0  0
   47.2825   16.6872   24.0837 H   0  0
   48.0138   18.1614   23.5047 H   0  0
   44.9412   19.3833   30.3360 H   0  0
   45.2772   16.7506   30.0546 H   0  0
   45.3310   16.2138   28.3705 H   0  0
   43.9557   17.1784   28.9371 H   0  0
   49.3558   16.1619   25.4252 H   0  0
   49.5789   16.1912   23.6781 H   0  0
   45.6909   19.8068   23.7717 H   0  0
   47.7263   23.2532   25.4121 H   0  0
   51.4616   17.3010   24.7620 H   0  0
   50.3925   18.4287   25.6023 H   0  0
   50.5464   18.4992   23.8341 H   0  0
   43.6838   21.1468   23.4550 H   0  0
   45.7051   24.5909   25.0578 H   0  0
   46.6973   21.1595   33.2466 H   0  0
   46.9694   20.0813   31.8704 H   0  0
   45.3042   20.3011   32.5229 H   0  0
   45.5251   23.2000   33.9770 H   0  0
   45.7617   25.8884   29.7644 H   0  0
   45.2393   25.6635   34.0302 H   0  0
   45.3916   27.0071   31.9672 H   0  0
   43.3682   24.2307   26.3141 H   0  0
   40.6010   24.5246   22.2296 H   0  0
   41.2077   25.4082   26.3874 H   0  0
   39.7977   25.5348   24.3392 H   0  0
  1  2  1  0
  1  3  2  0
  1  4  1  0
  2  5  1  0
  2  6  1  0
  3  7  1  0
  3  8  1  0
  4  9  2  0
  4 40  1  0
  5  7  2  0
  5 10  1  0
  6 11  1  0
  6 41  1  0
  6 42  1  0
  8 12  2  0
  8 13  1  0
  9 12  1  0
  9 14  1  0
 10 15  1  0
 10 43  1  0
 10 44  1  0
 11 16  2  0
 11 17  1  0
 12 45  1  0
 13 46  1  0
 13 47  1  0
 13 48  1  0
 14 18  1  0
 14 19  2  0
 15 20  1  0
 15 49  1  0
 15 50  1  0
 16 21  1  0
 16 51  1  0
 17 22  2  0
 17 52  1  0
 18 23  1  0
 18 24  1  0
 19 25  1  0
 20 53  1  0
 20 54  1  0
 20 55  1  0
 21 26  2  0
 21 56  1  0
 22 26  1  0
 22 57  1  0
 23 25  2  0
 23 27  1  0
 24 58  1  0
 24 59  1  0
 24 60  1  0
 25 28  1  0
 26 29  1  0
 27 30  2  0
 27 61  1  0
 28 31  2  0
 28 62  1  0
 29 32  2  0
 29 33  1  0
 30 31  1  0
 30 63  1  0
 31 64  1  0
 32 34  1  0
 32 35  1  0
 33 36  2  0
 33 65  1  0
 34 37  2  0
 34 66  1  0
 35 38  2  0
 35 39  1  0
 36 37  1  0
 36 67  1  0
 37 68  1  0
M  CHG  1  39  -1
M  END
> <Name>
3vn2_TLS_43

> <REMARK99>
REMARK  99  MacroMolecule created from Mol2 file
REMARK  99  3vn2_TLS_43
REMARK  99  PROTEIN
REMARK  99  USER_CHARGES
REMARK  99
REMARK  99

> <Forcefield>
MMFF

> <ForcefieldBase>
MMFF

> <ForcefieldFFML>
<?xml version="1.0" encoding="UTF-8"?>
<!DOCTYPE ffml SYSTEM "Ffml.dtd">
<ffml version="1.0">
<forcefield name="MMFF" derivedFrom="MMFF" base="MMFF">
<atomTypes>
<atomType
name="C100"
element="C"
mass="12.011"
annotation=""/>
<atomType
name="N101"
element="N"
mass="14.007"
annotation=""/>
<atomType
name="O102"
element="O"
mass="16"
annotation=""/>
<atomType
name="H103"
element="H"
mass="1.008"
annotation=""/>
</atomTypes>
<parameters>
</parameters>
</forcefield>
</ffml>

> <Initial Potential Energy>
197.07507

> <Initial RMS Gradient>
11.36023

> <Minimization Criteria>
STEEPD> Minimization exiting with gradient tolerance ( 3.0000000) satisfied.

> <CHARMm Energy>
122.98014

> <Potential Energy>
122.98014

> <RMS Gradient>
0.06986

> <Bond Energy>
9.63175

> <Angle Energy>
9.10599

> <STRBend>
-1.55468

> <Dihedral Energy>
9.5088

> <OOPLane>
0.26839

> <Van der Waals Energy>
73.62736

> <Electrostatic Energy>
22.39255

> <Hydrogen Bond Energy>
0

> <Solvation Free Energy>
0

> <HasGasteigerCharges>
true

$$$$
3B1M_KRC_37
  SciTegic05202517383D

 65 69  0  0  0  0            999 V2000
   15.8884   50.8634   64.1243 C   0  0
   16.2883   51.1667   62.8690 C   0  0
   15.9327   50.3641   61.7267 C   0  0
   15.3658   49.1694   61.9091 C   0  0
   15.1357   48.5264   63.2538 C   0  0  1  0  0  0
   15.1473   49.5802   64.3580 C   0  0
   14.6049   48.5544   60.9246 O   0  0
   13.6129   47.8596   61.5884 C   0  0
   13.8139   47.8654   62.9776 C   0  0
   12.4832   47.3164   61.0002 C   0  0
   11.5152   46.7290   61.8364 C   0  0
   11.7207   46.7217   63.2283 C   0  0
   12.8562   47.3063   63.7959 C   0  0
   14.6443   49.3468   65.4621 O   0  0
   12.9242   47.3039   65.1518 O   0  0
   10.4057   46.2008   61.2275 O   0  0
   12.3042   47.4776   59.5392 C   0  0
   11.0691   47.9380   59.1683 N   0  0
   16.2132   47.4787   63.5599 C   0  0
   13.2167   47.2556   58.7546 O   0  0
   16.2057   51.8182   65.2212 C   0  0
   16.9606   52.3144   62.5056 O   0  0
   16.2300   51.3423   66.6500 C   0  0
   16.4767   52.9903   64.9444 O   0  0
    9.3624   45.7122   62.0620 C   0  0
   10.7093   48.1862   57.7974 C   0  0
    9.2451   48.5754   57.7265 C   0  0
    8.8659   49.9345   57.5826 C   0  0
    7.5041   50.2675   57.5823 C   0  0
    6.5276   49.2924   57.7661 C   0  0
    6.8787   47.9514   57.9435 C   0  0
    8.2395   47.5647   57.9067 C   0  0
    5.8758   46.9936   58.1632 C   0  0
    6.1860   45.6466   58.3339 C   0  0
    7.5077   45.2380   58.2820 C   0  0
    8.5149   46.1819   58.0709 C   0  0
    9.8612   51.0626   57.4102 C   0  0
   10.2736   51.2428   55.9565 C   0  0
   15.9676   50.8181   60.7402 H   0  0
   10.9974   46.2815   63.9085 H   0  0
   13.5822   47.9599   65.4669 H   0  0
   10.3482   48.0301   59.8743 H   0  0
   15.9874   46.9432   64.4900 H   0  0
   17.1985   47.9434   63.6859 H   0  0
   16.2994   46.7287   62.7641 H   0  0
   17.0000   52.9262   63.2765 H   0  0
   15.2169   51.3337   67.0583 H   0  0
   16.8435   52.0271   67.2437 H   0  0
   16.6882   50.3524   66.7199 H   0  0
    8.5439   45.3827   61.4150 H   0  0
    8.9734   46.5021   62.7128 H   0  0
    9.6962   44.8453   62.6413 H   0  0
   11.3819   48.9505   57.4004 H   0  0
   10.9110   47.2925   57.1960 H   0  0
    7.1903   51.3012   57.4476 H   0  0
    5.4804   49.5936   57.7656 H   0  0
    4.8297   47.2920   58.1963 H   0  0
    5.3911   44.9208   58.4885 H   0  0
    7.7644   44.1896   58.4079 H   0  0
    9.5372   45.8104   58.0455 H   0  0
    9.4191   51.9997   57.7725 H   0  0
   10.7383   50.9038   58.0467 H   0  0
   10.9892   52.0664   55.8666 H   0  0
    9.4081   51.4764   55.3271 H   0  0
   10.7439   50.3401   55.5533 H   0  0
  1  2  2  0
  1  6  1  0
  1 21  1  0
  2  3  1  0
  2 22  1  0
  3  4  2  0
  3 39  1  0
  4  5  1  0
  4  7  1  0
  5  6  1  0
  5  9  1  0
  5 19  1  0
  6 14  2  0
  7  8  1  0
  8  9  2  0
  8 10  1  0
  9 13  1  0
 10 11  2  0
 10 17  1  0
 11 12  1  0
 11 16  1  0
 12 13  2  0
 12 40  1  0
 13 15  1  0
 15 41  1  0
 16 25  1  0
 17 18  1  0
 17 20  2  0
 18 26  1  0
 18 42  1  0
 19 43  1  0
 19 44  1  0
 19 45  1  0
 21 23  1  0
 21 24  2  0
 22 46  1  0
 23 47  1  0
 23 48  1  0
 23 49  1  0
 25 50  1  0
 25 51  1  0
 25 52  1  0
 26 27  1  0
 26 53  1  0
 26 54  1  0
 27 28  2  0
 27 32  1  0
 28 29  1  0
 28 37  1  0
 29 30  2  0
 29 55  1  0
 30 31  1  0
 30 56  1  0
 31 32  2  0
 31 33  1  0
 32 36  1  0
 33 34  2  0
 33 57  1  0
 34 35  1  0
 34 58  1  0
 35 36  2  0
 35 59  1  0
 36 60  1  0
 37 38  1  0
 37 61  1  0
 37 62  1  0
 38 63  1  0
 38 64  1  0
 38 65  1  0
M  END
> <Name>
3B1M_KRC_37

> <Forcefield>
MMFF

> <ForcefieldBase>
MMFF

> <ForcefieldFFML>
<?xml version="1.0" encoding="UTF-8"?>
<!DOCTYPE ffml SYSTEM "Ffml.dtd">
<ffml version="1.0">
<forcefield name="MMFF" derivedFrom="MMFF" base="MMFF">
<atomTypes>
<atomType
name="C100"
element="C"
mass="12.011"
annotation=""/>
<atomType
name="O101"
element="O"
mass="16"
annotation=""/>
<atomType
name="N102"
element="N"
mass="14.007"
annotation=""/>
<atomType
name="H103"
element="H"
mass="1.008"
annotation=""/>
</atomTypes>
<parameters>
</parameters>
</forcefield>
</ffml>

> <REMARK99>
REMARK  99  MacroMolecule created from Mol2 file
REMARK  99  3B1M KRC 94
REMARK  99  PROTEIN
REMARK  99  USER_CHARGES
REMARK  99
REMARK  99

> <Initial Potential Energy>
142.795333862305

> <Initial RMS Gradient>
17.5762996673584

> <Minimization Criteria>
 STEEPD> Minimization exiting with gradient tolerance ( 3.0000000) satisfied.

> <CHARMm Energy>
64.6442489624023

> <Potential Energy>
64.6442489624023

> <RMS Gradient>
0.047910001128912

> <Bond Energy>
9.52145957946777

> <Angle Energy>
29.9734401702881

> <STRBend>
-0.474880009889603

> <Dihedral Energy>
9.20891952514648

> <OOPLane>
0.823019981384277

> <Van der Waals Energy>
81.8050079345703

> <Electrostatic Energy>
-66.2127075195312

> <Hydrogen Bond Energy>
0

> <Solvation Free Energy>
0

> <HasGasteigerCharges>
true

$$$$
