CHEMBL5092049
  DSViewer          3D                             0

 52 55  0  0  0  0  0  0  0  0999 V2000
   31.2749    0.0990    1.1225 F   0  0
   31.2714   -1.2136    1.4846 C   0  0
   32.4738   -1.4629    2.0710 F   0  0
   29.7829   -2.8741    0.3062 C   0  0
   29.4594   -3.7174   -0.7563 C   0  0
   30.3480   -3.8329   -1.8232 C   0  0
   31.5440   -3.1112   -1.8372 C   0  0
   31.8780   -2.2462   -0.7808 C   0  0
   30.9885   -2.1342    0.3137 C   0  0
   30.3440   -1.3071    2.4831 F   0  0
   33.1601   -1.4498   -0.8798 C   0  0
   34.3359   -2.2703   -0.6992 N   0  0
   35.5846   -1.6815   -0.7220 C   0  0
   36.7679   -2.5770   -0.5794 C   0  0
   35.7450   -0.4705   -0.8375 O   0  0
   36.7690   -3.8929   -1.0576 C   0  0
   37.9114   -4.7022   -0.9510 C   0  0
   37.9262   -2.0379    0.0066 C   0  0
   39.0766   -2.8402    0.1262 C   0  0
   39.0528   -4.1481   -0.3488 C   0  0
   40.3072   -4.6547   -0.0740 N   0  0
   41.1412   -3.7598    0.5091 N   0  0
   40.3814   -2.6686    0.6388 C   0  0
   40.8130   -5.9946   -0.3759 C   0  0
   40.0467   -7.1041    0.3138 C   0  0
   39.5256   -6.9708    1.6118 C   0  0
   38.8538   -8.0318    2.2277 C   0  0
   38.7397   -9.2574    1.5756 C   0  0
   39.2813   -9.4084    0.3055 C   0  0
   39.9114   -8.3428   -0.3324 C   0  0
   28.3224   -4.4669   -0.8732 O   0  0
   27.3853   -4.3945    0.1937 C   0  0
   39.1994  -10.5948   -0.3142 F   0  0
   29.0988   -2.7620    1.1453 H   0  0
   30.0976   -4.4822   -2.6600 H   0  0
   32.2090   -3.2118   -2.6940 H   0  0
   33.2198   -0.9809   -1.8704 H   0  0
   33.1966   -0.6296   -0.1570 H   0  0
   34.2282   -3.2539   -0.4947 H   0  0
   35.8926   -4.3033   -1.5527 H   0  0
   37.9087   -5.7201   -1.3297 H   0  0
   37.9373   -1.0091    0.3590 H   0  0
   40.8017   -1.7841    1.0990 H   0  0
   40.7551   -6.0937   -1.4662 H   0  0
   41.8666   -6.0381   -0.0771 H   0  0
   39.6164   -6.0293    2.1551 H   0  0
   38.4196   -7.8932    3.2157 H   0  0
   38.2500  -10.1014    2.0515 H   0  0
   40.3082   -8.4983   -1.3311 H   0  0
   26.5480   -5.0547   -0.0520 H   0  0
   26.9886   -3.3795    0.3018 H   0  0
   27.8252   -4.7505    1.1311 H   0  0
  2  1  1  0  0  0
  2 10  1  0  0  0
  3  2  1  0  0  0
  4  5  2  0  0  0
  4 34  1  0  0  0
  5  6  1  0  0  0
  5 31  1  0  0  0
  6  7  2  0  0  0
  6 35  1  0  0  0
  7  8  1  0  0  0
  7 36  1  0  0  0
  8  9  2  0  0  0
  8 11  1  0  0  0
  9  2  1  0  0  0
  9  4  1  0  0  0
 11 12  1  0  0  0
 11 37  1  0  0  0
 11 38  1  0  0  0
 12 13  1  0  0  0
 12 39  1  0  0  0
 13 14  1  0  0  0
 13 15  2  0  0  0
 14 16  2  0  0  0
 16 17  1  0  0  0
 16 40  1  0  0  0
 17 20  2  0  0  0
 17 41  1  0  0  0
 18 14  1  0  0  0
 18 42  1  0  0  0
 19 18  2  0  0  0
 19 20  1  0  0  0
 20 21  1  0  0  0
 21 22  1  0  0  0
 21 24  1  0  0  0
 22 23  2  0  0  0
 23 19  1  0  0  0
 23 43  1  0  0  0
 24 25  1  0  0  0
 24 44  1  0  0  0
 24 45  1  0  0  0
 25 26  2  0  0  0
 26 27  1  0  0  0
 26 46  1  0  0  0
 27 28  2  0  0  0
 27 47  1  0  0  0
 28 29  1  0  0  0
 28 48  1  0  0  0
 29 30  2  0  0  0
 29 33  1  0  0  0
 30 25  1  0  0  0
 30 49  1  0  0  0
 31 32  1  0  0  0
 32 50  1  0  0  0
 32 51  1  0  0  0
 32 52  1  0  0  0
M  END
> <Clean Energy>
48.813

> <chembl_id>
CHEMBL5092049

> <chembl_pref_name>
None

> <efficacy>
0.208927

> <Forcefield>
MMFF

> <ForcefieldBase>
MMFF

> <ForcefieldFFML>
<?xml version="1.0" encoding="UTF-8"?>
<!DOCTYPE ffml SYSTEM "Ffml.dtd">
<ffml version="1.0">
<forcefield name="MMFF" derivedFrom="MMFF" base="MMFF">
<atomTypes>
<atomType
name="F100"
element="F"
mass="18.998"
annotation=""/>
<atomType
name="C101"
element="C"
mass="12.011"
annotation=""/>
<atomType
name="N102"
element="N"
mass="14.007"
annotation=""/>
<atomType
name="O103"
element="O"
mass="16"
annotation=""/>
<atomType
name="H104"
element="H"
mass="1.008"
annotation=""/>
</atomTypes>
<parameters>
</parameters>
</forcefield>
</ffml>

> <Initial Potential Energy>
471.944

> <Initial RMS Gradient>
208.05

> <Minimization Criteria>
STEEPD> Minimization exiting with gradient tolerance ( 3.0000000) satisfied.

> <CHARMm Energy>
82.0978

> <Potential Energy>
82.0978

> <RMS Gradient>
0.0405

> <Bond Energy>
7.05536

> <Angle Energy>
12.7717

> <STRBend>
0.30133

> <Dihedral Energy>
1.74863

> <OOPLane>
0.07516

> <Van der Waals Energy>
58.6333

> <Electrostatic Energy>
1.51229

> <Hydrogen Bond Energy>
0

> <Solvation Free Energy>
0

> <HasGasteigerCharges>
true

> <REMARK99>
REMARK  99  MacroMolecule created from Mol2 file
REMARK  99  CHEMBL5092049
REMARK  99  PROTEIN
REMARK  99  GASTEIGER
REMARK  99
REMARK  99

$$$$
CHEMBL461379
  SciTegic05292516403D

 52 55  0  0  0  0            999 V2000
   11.1727   -6.9041   -0.5638 C   0  0
   10.7832   -8.2100   -0.8079 C   0  0
   11.6415   -9.2467   -0.4467 C   0  0
   12.3357   -6.5176    0.0018 N   0  0
   13.1453   -7.5495    0.3303 C   0  0
   12.8643   -8.9016    0.1508 C   0  0
   13.9769   -9.6137    0.6486 C   0  0
   14.8829   -8.7182    1.1894 C   0  0
   14.4033   -7.4488    0.8968 N   0  0
   16.1432   -8.9811    1.9357 C   0  0
   15.0770   -6.1807    1.1803 C   0  0
   16.3556   -6.0141    0.3806 C   0  0
   17.6131   -6.0428    1.0151 C   0  0
   18.8011   -5.9416    0.2801 C   0  0
   18.7254   -5.8164   -1.1051 C   0  0
   17.4921   -5.7518   -1.7500 C   0  0
   16.3099   -5.8489   -1.0117 C   0  0
   14.1012  -10.9612    0.6652 O   0  0
   15.1875  -11.5396    0.0492 C   0  0
   15.8626  -12.5424    0.7445 C   0  0
   16.9607  -13.1743    0.1593 C   0  0
   17.3698  -12.8058   -1.1221 C   0  0
   16.6894  -11.8118   -1.8245 C   0  0
   15.5905  -11.1791   -1.2399 C   0  0
   19.9556   -6.1020    0.9989 O   0  0
   21.1098   -5.3227    0.6215 C   0  0  2  0  0  0
   22.2926   -6.2619    0.3043 C   0  0
   21.4635   -4.4506    1.8201 C   0  0
   21.8757   -7.5326    0.0522 O   0  0
   23.4725   -5.9366    0.2677 O   0  0
   18.7235  -13.5845   -1.8427 Cl  0  0
   10.3350   -5.9234   -0.9302 F   0  0
   19.8378   -5.8145   -1.8518 F   0  0
    9.8239   -8.4101   -1.2712 H   0  0
   11.3725  -10.2852   -0.6152 H   0  0
   16.3074   -8.2407    2.7236 H   0  0
   17.0005   -8.9774    1.2561 H   0  0
   16.1074   -9.9573    2.4297 H   0  0
   14.3956   -5.3523    0.9589 H   0  0
   15.2710   -6.1578    2.2585 H   0  0
   17.6748   -6.1699    2.0948 H   0  0
   17.4579   -5.6529   -2.8311 H   0  0
   15.3520   -5.8164   -1.5304 H   0  0
   15.5496  -12.8150    1.7475 H   0  0
   17.4909  -13.9480    0.7066 H   0  0
   17.0061  -11.5288   -2.8245 H   0  0
   15.0545  -10.4141   -1.7943 H   0  0
   20.9318   -4.6838   -0.2486 H   0  0
   22.3371   -3.8239    1.6157 H   0  0
   21.6824   -5.0655    2.7006 H   0  0
   20.6219   -3.8016    2.0851 H   0  0
   20.9039   -7.6024    0.1670 H   0  0
  1  2  2  0
  1 32  1  0
  2  3  1  0
  2 34  1  0
  3  6  2  0
  3 35  1  0
  4  1  1  0
  5  4  2  0
  5  6  1  0
  6  7  1  0
  7  8  2  0
  7 18  1  0
  8  9  1  0
  8 10  1  0
  9  5  1  0
  9 11  1  0
 10 36  1  0
 10 37  1  0
 10 38  1  0
 11 12  1  0
 11 39  1  0
 11 40  1  0
 12 13  2  0
 13 14  1  0
 13 41  1  0
 14 15  2  0
 14 25  1  0
 15 16  1  0
 15 33  1  0
 16 17  2  0
 16 42  1  0
 17 12  1  0
 17 43  1  0
 18 19  1  0
 19 20  2  0
 20 21  1  0
 20 44  1  0
 21 22  2  0
 21 45  1  0
 22 23  1  0
 22 31  1  0
 23 24  2  0
 23 46  1  0
 24 19  1  0
 24 47  1  0
 25 26  1  0
 26 27  1  0
 26 28  1  0
 26 48  1  0
 27 29  1  0
 27 30  2  0
 28 49  1  0
 28 50  1  0
 28 51  1  0
 29 52  1  0
M  END
> <Name>
CHEMBL461379

> <Clean Energy>
98.971703

> <chembl_id>
CHEMBL461379

> <chembl_pref_name>
None

> <efficacy>
0.22

> <Forcefield>
MMFF

> <ForcefieldBase>
MMFF

> <ForcefieldFFML>
<?xml version="1.0" encoding="UTF-8"?>
<!DOCTYPE ffml SYSTEM "Ffml.dtd">
<ffml version="1.0">
<forcefield name="MMFF" derivedFrom="MMFF" base="MMFF">
<atomTypes>
<atomType
name="C100"
element="C"
mass="12.011"
annotation=""/>
<atomType
name="N101"
element="N"
mass="14.007"
annotation=""/>
<atomType
name="O102"
element="O"
mass="16"
annotation=""/>
<atomType
name="Cl103"
element="Cl"
mass="35.453"
annotation=""/>
<atomType
name="F104"
element="F"
mass="18.998"
annotation=""/>
<atomType
name="H105"
element="H"
mass="1.008"
annotation=""/>
</atomTypes>
<parameters>
</parameters>
</forcefield>
</ffml>

> <Initial Potential Energy>
255.0954

> <Initial RMS Gradient>
35.4794

> <Minimization Criteria>
STEEPD> Minimization exiting with gradient tolerance ( 3.0000000) satisfied.

> <CHARMm Energy>
91.08707

> <Potential Energy>
91.08707

> <RMS Gradient>
0.07848

> <Bond Energy>
5.67461

> <Angle Energy>
12.14606

> <STRBend>
1.15745

> <Dihedral Energy>
10.91974

> <OOPLane>
0.15712

> <Van der Waals Energy>
56.06581

> <Electrostatic Energy>
4.96627

> <Hydrogen Bond Energy>
0

> <Solvation Free Energy>
0

> <HasGasteigerCharges>
true

> <REMARK99>
REMARK  99  MacroMolecule created from Mol2 file
REMARK  99  CHEMBL461379
REMARK  99  PROTEIN
REMARK  99  GASTEIGER
REMARK  99
REMARK  99

$$$$
CHEMBL5075443
  SciTegic05292516403D

 49 52  0  0  0  0            999 V2000
   20.0966   -6.2858    1.7375 F   0  0
   19.5896   -7.5413    1.5861 C   0  0
   20.2783   -8.3190    2.4731 F   0  0
   18.6247   -8.5358   -0.5102 C   0  0
   18.7188   -9.0098   -1.8161 C   0  0
   19.9501   -9.0092   -2.4645 C   0  0
   21.0895   -8.5405   -1.8076 C   0  0
   21.0288   -8.0763   -0.4786 C   0  0
   19.7653   -8.0584    0.1711 C   0  0
   18.3032   -7.4974    2.0262 F   0  0
   22.2898   -7.5134    0.1665 C   0  0
   23.4756   -8.3294   -0.0503 N   0  0
   24.7413   -7.7637   -0.0306 C   0  0
   25.9362   -8.6624   -0.1927 C   0  0
   24.9171   -6.5590    0.1274 O   0  0
   25.8172  -10.0213   -0.5739 C   0  0
   26.9492  -10.8384   -0.7230 C   0  0
   27.2200   -8.1074    0.0245 C   0  0
   28.3187   -8.9302   -0.1350 C   0  0
   28.1848  -10.2692   -0.4958 C   0  0
   29.4708  -10.8201   -0.5741 N   0  0
   30.4247   -9.8212   -0.2736 C   0  0
   29.6824   -8.6524   -0.0008 N   0  0
   31.6407   -9.9253   -0.2477 O   0  0
   29.7957  -12.1765   -0.9310 C   0  0
   29.4189  -13.1862    0.1288 C   0  0
   29.7585  -12.9839    1.4756 C   0  0
   29.4504  -13.9507    2.4300 C   0  0
   28.8167  -15.1325    2.0769 C   0  0
   28.4931  -15.3418    0.7448 C   0  0
   28.7829  -14.3853   -0.2277 C   0  0
   27.9223  -16.4983    0.3793 F   0  0
   29.7940  -13.7449    3.7081 F   0  0
   17.6486   -8.5308   -0.0236 H   0  0
   17.8303   -9.3673   -2.3321 H   0  0
   20.0035   -9.3589   -3.4937 H   0  0
   22.0355   -8.5242   -2.3478 H   0  0
   22.4566   -6.5007   -0.2182 H   0  0
   22.1861   -7.4427    1.2525 H   0  0
   23.3472   -9.3287   -0.0572 H   0  0
   24.8494  -10.4681   -0.7784 H   0  0
   26.8413  -11.8769   -1.0134 H   0  0
   27.3376   -7.0654    0.3054 H   0  0
   30.1237   -7.7759    0.2336 H   0  0
   29.2920  -12.4000   -1.8791 H   0  0
   30.8740  -12.2568   -1.1125 H   0  0
   30.2744  -12.0809    1.7933 H   0  0
   28.5832  -15.8768    2.8275 H   0  0
   28.5197  -14.5973   -1.2608 H   0  0
  2  1  1  0
  2 10  1  0
  3  2  1  0
  4  5  2  0
  4 34  1  0
  5  6  1  0
  5 35  1  0
  6  7  2  0
  6 36  1  0
  7  8  1  0
  7 37  1  0
  8  9  2  0
  8 11  1  0
  9  2  1  0
  9  4  1  0
 11 12  1  0
 11 38  1  0
 11 39  1  0
 12 13  1  0
 12 40  1  0
 13 14  1  0
 13 15  2  0
 14 16  2  0
 16 17  1  0
 16 41  1  0
 17 20  2  0
 17 42  1  0
 18 14  1  0
 18 43  1  0
 19 18  2  0
 19 20  1  0
 20 21  1  0
 21 22  1  0
 21 25  1  0
 22 23  1  0
 22 24  2  0
 23 19  1  0
 23 44  1  0
 25 26  1  0
 25 45  1  0
 25 46  1  0
 26 27  2  0
 27 28  1  0
 27 47  1  0
 28 29  2  0
 28 33  1  0
 29 30  1  0
 29 48  1  0
 30 31  2  0
 30 32  1  0
 31 26  1  0
 31 49  1  0
M  END
> <Name>
CHEMBL5075443

> <Clean Energy>
47.584599

> <chembl_id>
CHEMBL5075443

> <chembl_pref_name>
None

> <efficacy>
0.151946819

> <Forcefield>
MMFF

> <ForcefieldBase>
MMFF

> <ForcefieldFFML>
<?xml version="1.0" encoding="UTF-8"?>
<!DOCTYPE ffml SYSTEM "Ffml.dtd">
<ffml version="1.0">
<forcefield name="MMFF" derivedFrom="MMFF" base="MMFF">
<atomTypes>
<atomType
name="F100"
element="F"
mass="18.998"
annotation=""/>
<atomType
name="C101"
element="C"
mass="12.011"
annotation=""/>
<atomType
name="N102"
element="N"
mass="14.007"
annotation=""/>
<atomType
name="O103"
element="O"
mass="16"
annotation=""/>
<atomType
name="H104"
element="H"
mass="1.008"
annotation=""/>
</atomTypes>
<parameters>
</parameters>
</forcefield>
</ffml>

> <Initial Potential Energy>
426.81652

> <Initial RMS Gradient>
263.14637

> <Minimization Criteria>
STEEPD> Minimization exiting with gradient tolerance ( 3.0000000) satisfied.

> <CHARMm Energy>
-2.94136

> <Potential Energy>
-2.94136

> <RMS Gradient>
0.02699

> <Bond Energy>
8.68365

> <Angle Energy>
27.79178

> <STRBend>
-1.64948

> <Dihedral Energy>
-1.35644

> <OOPLane>
0.16836

> <Van der Waals Energy>
53.51815

> <Electrostatic Energy>
-90.09739

> <Hydrogen Bond Energy>
0

> <Solvation Free Energy>
0

> <HasGasteigerCharges>
true

> <REMARK99>
REMARK  99  MacroMolecule created from Mol2 file
REMARK  99  CHEMBL5075443
REMARK  99  PROTEIN
REMARK  99  GASTEIGER
REMARK  99
REMARK  99

$$$$
CHEMBL5093865
  SciTegic05292516403D

 63 65  0  0  0  0            999 V2000
    1.2076  -22.1324   -0.1203 C   0  0
    0.6070  -23.1104    0.8988 C   0  0
   -0.6376  -23.8631    0.4091 C   0  0
    8.8551  -27.3086   -1.7593 C   0  0
    8.1727  -28.5165   -1.9188 C   0  0
    8.8839  -29.7163   -1.9646 C   0  0
   10.2680  -29.7188   -1.7816 C   0  0
   10.9483  -28.5195   -1.5552 C   0  0
   10.2386  -27.3134   -1.5761 C   0  0
   12.3328  -28.5313   -1.3236 N   0  0
   12.5447  -28.3967   -0.0974 N   0  0
    6.8157  -28.6351   -2.0426 O   0  0
    6.0657  -27.5763   -1.4346 C   0  0
    4.6550  -28.0781   -1.1396 C   0  0
    3.8106  -27.0083   -0.4948 C   0  0
    3.9489  -26.7124    0.8646 C   0  0
    3.1807  -25.6989    1.4456 C   0  0
    2.2660  -24.9566    0.6904 C   0  0
    2.1327  -25.2503   -0.6625 C   0  0
    2.8993  -26.2663   -1.2518 C   0  0
    1.6058  -24.0089    1.4104 O   0  0
    0.1581  -22.2690    2.1338 C   0  0
   -0.7612  -21.3016    1.8568 O   0  0
    0.5481  -22.4206    3.2840 O   0  0
   13.9216  -28.4136    0.1739 C   0  0
   14.4541  -29.4481    0.9461 C   0  0
   15.8141  -29.4712    1.2629 C   0  0
   16.6689  -28.4509    0.8190 C   0  0
   16.1272  -27.4068    0.0540 C   0  0
   14.7665  -27.3874   -0.2602 C   0  0
   18.1455  -28.4962    1.1749 C   0  0
   19.0226  -28.5952   -0.0756 C   0  0
   18.5537  -27.2970    2.0341 C   0  0
    1.6258  -22.6284   -0.9974 H   0  0
    2.0311  -21.5684    0.3341 H   0  0
    0.4718  -21.4101   -0.4872 H   0  0
   -0.9985  -24.5482    1.1856 H   0  0
   -0.4508  -24.4708   -0.4774 H   0  0
   -1.4592  -23.1855    0.1556 H   0  0
    8.3355  -26.3551   -1.7626 H   0  0
    8.3590  -30.6563   -2.1176 H   0  0
   10.8164  -30.6567   -1.7898 H   0  0
   10.7763  -26.3798   -1.4315 H   0  0
    6.5300  -27.2567   -0.4920 H   0  0
    6.0263  -26.7240   -2.1241 H   0  0
    4.1849  -28.4341   -2.0652 H   0  0
    4.6976  -28.9595   -0.4867 H   0  0
    4.6570  -27.2631    1.4816 H   0  0
    3.2903  -25.4827    2.5072 H   0  0
    1.4515  -24.7171   -1.3110 H   0  0
    2.7718  -26.4716   -2.3132 H   0  0
   -1.0376  -21.2535    0.9247 H   0  0
   13.7979  -30.2387    1.3010 H   0  0
   16.2018  -30.2934    1.8611 H   0  0
   16.7605  -26.5978   -0.3032 H   0  0
   14.3539  -26.5692   -0.8450 H   0  0
   18.3330  -29.3988    1.7717 H   0  0
   20.0760  -28.7115    0.2015 H   0  0
   18.9415  -27.7025   -0.7053 H   0  0
   18.7389  -29.4605   -0.6851 H   0  0
   19.5981  -27.3887    2.3515 H   0  0
   17.9339  -27.2321    2.9354 H   0  0
   18.4534  -26.3507    1.4914 H   0  0
  1 34  1  0
  1 35  1  0
  1 36  1  0
  2  1  1  0
  2 22  1  0
  3  2  1  0
  3 37  1  0
  3 38  1  0
  3 39  1  0
  4  5  2  0
  4 40  1  0
  5  6  1  0
  5 12  1  0
  6  7  2  0
  6 41  1  0
  7  8  1  0
  7 42  1  0
  8  9  2  0
  8 10  1  0
  9  4  1  0
  9 43  1  0
 10 11  2  0
 11 25  1  0
 12 13  1  0
 13 14  1  0
 13 44  1  0
 13 45  1  0
 14 15  1  0
 14 46  1  0
 14 47  1  0
 15 16  2  0
 16 17  1  0
 16 48  1  0
 17 18  2  0
 17 49  1  0
 18 19  1  0
 18 21  1  0
 19 20  2  0
 19 50  1  0
 20 15  1  0
 20 51  1  0
 21  2  1  0
 22 23  1  0
 22 24  2  0
 23 52  1  0
 25 26  2  0
 26 27  1  0
 26 53  1  0
 27 28  2  0
 27 54  1  0
 28 29  1  0
 28 31  1  0
 29 30  2  0
 29 55  1  0
 30 25  1  0
 30 56  1  0
 31 32  1  0
 31 33  1  0
 31 57  1  0
 32 58  1  0
 32 59  1  0
 32 60  1  0
 33 61  1  0
 33 62  1  0
 33 63  1  0
M  END
> <Name>
CHEMBL5093865

> <Clean Energy>
44.967499

> <chembl_id>
CHEMBL5093865

> <chembl_pref_name>
None

> <efficacy>
0.161443495

> <Forcefield>
MMFF

> <ForcefieldBase>
MMFF

> <ForcefieldFFML>
<?xml version="1.0" encoding="UTF-8"?>
<!DOCTYPE ffml SYSTEM "Ffml.dtd">
<ffml version="1.0">
<forcefield name="MMFF" derivedFrom="MMFF" base="MMFF">
<atomTypes>
<atomType
name="C100"
element="C"
mass="12.011"
annotation=""/>
<atomType
name="N101"
element="N"
mass="14.007"
annotation=""/>
<atomType
name="O102"
element="O"
mass="16"
annotation=""/>
<atomType
name="H103"
element="H"
mass="1.008"
annotation=""/>
</atomTypes>
<parameters>
</parameters>
</forcefield>
</ffml>

> <Initial Potential Energy>
264.76144

> <Initial RMS Gradient>
32.74573

> <Minimization Criteria>
CONJUG> Minimization exiting with gradient tolerance ( 0.0100000) satisfied.

> <CHARMm Energy>
106.91843

> <Potential Energy>
106.91843

> <RMS Gradient>
0.00962

> <Bond Energy>
7.20755

> <Angle Energy>
22.8061

> <STRBend>
0.38679

> <Dihedral Energy>
6.08454

> <OOPLane>
0.02962

> <Van der Waals Energy>
69.50918

> <Electrostatic Energy>
0.89465

> <Hydrogen Bond Energy>
0

> <Solvation Free Energy>
0

> <HasGasteigerCharges>
true

> <REMARK99>
REMARK  99  MacroMolecule created from Mol2 file
REMARK  99  CHEMBL5093865
REMARK  99  PROTEIN
REMARK  99  GASTEIGER
REMARK  99
REMARK  99

$$$$
CHEMBL190368
  SciTegic05292516403D

 37 38  0  0  0  0            999 V2000
    1.3399  -11.1154   -0.9186 C   0  0
    0.3419  -12.2413   -0.6156 C   0  0  1  0  0  0
   -0.9355  -11.8173   -1.1128 O   0  0
   -5.8769  -13.6231    0.9923 C   0  0
   -4.5813  -13.1325    0.4387 C   0  0
    0.7733  -13.5194   -1.3519 C   0  0
    1.1723  -10.2258   -1.7413 O   0  0
   -5.8693  -14.5234    1.8297 O   0  0
   -3.3955  -13.6668    0.9592 C   0  0
   -4.5078  -12.1746   -0.5751 C   0  0
   -2.0748  -12.3003   -0.5370 C   0  0
    2.4733  -11.1711   -0.1725 O   0  0
   -2.1501  -13.2524    0.4757 C   0  0
   -3.2583  -11.7664   -1.0567 C   0  0
    1.8713  -14.2735   -0.6392 C   0  0
   -7.1616  -13.0079    0.5063 C   0  0
    3.2040  -14.1515   -1.0561 C   0  0
    1.5769  -15.0882    0.4625 C   0  0
    2.5967  -15.7534    1.1436 C   0  0
    4.2227  -14.8165   -0.3722 C   0  0
    3.9188  -15.6144    0.7287 C   0  0
    0.3136  -12.3399    0.4760 H   0  0
   -0.0797  -14.1981   -1.4812 H   0  0
    1.0903  -13.2784   -2.3756 H   0  0
   -3.4350  -14.4158    1.7491 H   0  0
   -5.3991  -11.7327   -1.0119 H   0  0
    2.5335  -11.9356    0.4348 H   0  0
   -1.2711  -13.7050    0.9162 H   0  0
   -3.2055  -11.0217   -1.8493 H   0  0
   -7.9990  -13.4364    1.0658 H   0  0
   -7.3087  -13.2297   -0.5537 H   0  0
   -7.1572  -11.9291    0.6824 H   0  0
    3.4622  -13.5345   -1.9158 H   0  0
    0.5508  -15.2286    0.7934 H   0  0
    2.3602  -16.3900    1.9930 H   0  0
    5.2545  -14.7181   -0.7019 H   0  0
    4.7116  -16.1391    1.2566 H   0  0
  2  1  1  0
  2 22  1  0
  3  2  1  0
  4  5  1  0
  5  9  1  0
  5 10  2  0
  6  2  1  0
  6 23  1  0
  6 24  1  0
  7  1  2  0
  8  4  2  0
  9 13  2  0
  9 25  1  0
 10 14  1  0
 10 26  1  0
 11  3  1  0
 12  1  1  0
 12 27  1  0
 13 11  1  0
 13 28  1  0
 14 11  2  0
 14 29  1  0
 15  6  1  0
 16  4  1  0
 16 30  1  0
 16 31  1  0
 16 32  1  0
 17 15  2  0
 17 33  1  0
 18 15  1  0
 18 34  1  0
 19 18  2  0
 19 35  1  0
 20 17  1  0
 20 36  1  0
 21 19  1  0
 21 20  2  0
 21 37  1  0
M  END
> <Name>
CHEMBL190368

> <Clean Energy>
18.250299

> <chembl_id>
CHEMBL190368

> <chembl_pref_name>
None

> <efficacy>
0.188

> <Forcefield>
MMFF

> <ForcefieldBase>
MMFF

> <ForcefieldFFML>
<?xml version="1.0" encoding="UTF-8"?>
<!DOCTYPE ffml SYSTEM "Ffml.dtd">
<ffml version="1.0">
<forcefield name="MMFF" derivedFrom="MMFF" base="MMFF">
<atomTypes>
<atomType
name="C100"
element="C"
mass="12.011"
annotation=""/>
<atomType
name="O101"
element="O"
mass="16"
annotation=""/>
<atomType
name="H102"
element="H"
mass="1.008"
annotation=""/>
</atomTypes>
<parameters>
</parameters>
</forcefield>
</ffml>

> <Initial Potential Energy>
128.33612

> <Initial RMS Gradient>
29.79073

> <Minimization Criteria>
CONJUG> Minimization exiting with gradient tolerance ( 0.0100000) satisfied.

> <CHARMm Energy>
72.82855

> <Potential Energy>
72.82855

> <RMS Gradient>
0.00936

> <Bond Energy>
4.17938

> <Angle Energy>
12.27905

> <STRBend>
0.4703

> <Dihedral Energy>
-1.47667

> <OOPLane>
0.00657

> <Van der Waals Energy>
42.21526

> <Electrostatic Energy>
15.15467

> <Hydrogen Bond Energy>
0

> <Solvation Free Energy>
0

> <HasGasteigerCharges>
true

> <REMARK99>
REMARK  99  MacroMolecule created from Mol2 file
REMARK  99  CHEMBL190368
REMARK  99  PROTEIN
REMARK  99  GASTEIGER
REMARK  99
REMARK  99

$$$$
CHEMBL4461949
  SciTegic05292516403D

 54 56  0  0  0  0            999 V2000
   46.4664  -16.0671    0.6420 C   0  0
   47.5947  -17.0297    0.2309 C   0  0
   47.9775  -17.9779    1.3760 C   0  0
   36.5353  -17.5226   -0.1854 C   0  0
   36.7041  -18.4674   -1.2011 C   0  0
   37.8282  -19.3000   -1.2319 C   0  0
   38.8183  -19.1899   -0.2492 C   0  0
   38.6677  -18.2248    0.7579 C   0  0
   37.5352  -17.4031    0.7895 C   0  0
   35.3980  -16.6898   -0.2050 N   0  0
   34.7414  -16.8042    0.8539 N   0  0
   33.5803  -16.0100    0.8086 C   0  0
   33.6405  -14.6084    0.7989 C   0  0
   32.4689  -13.8435    0.7955 C   0  0
   31.2283  -14.4793    0.8104 C   0  0
   31.1508  -15.8708    0.8309 C   0  0
   32.3249  -16.6308    0.8348 C   0  0
   40.0482  -20.0651   -0.2980 C   0  0
   41.2164  -19.3602   -0.9804 C   0  0
   42.3550  -20.2271   -0.9490 O   0  0
   43.5612  -19.5896   -1.0537 C   0  0
   44.6456  -20.2635   -0.4878 C   0  0
   45.9100  -19.6749   -0.4737 C   0  0
   46.0740  -18.4002   -1.0064 C   0  0
   45.0212  -17.7666   -1.6631 C   0  0
   43.7591  -18.3577   -1.6806 C   0  0
   47.2876  -17.7822   -0.9697 O   0  0
   48.8419  -16.1882   -0.1332 C   0  0
   49.3001  -15.3878    0.8672 O   0  0
   49.4220  -16.2068   -1.2110 O   0  0
   29.7867  -13.5423    0.8083 Cl  0  0
   45.5550  -16.6061    0.9222 H   0  0
   46.2095  -15.3947   -0.1845 H   0  0
   46.7382  -15.4458    1.5010 H   0  0
   48.7220  -18.7092    1.0409 H   0  0
   47.1111  -18.5399    1.7385 H   0  0
   48.3937  -17.4467    2.2378 H   0  0
   35.9465  -18.5612   -1.9747 H   0  0
   37.9066  -20.0368   -2.0289 H   0  0
   39.4376  -18.1014    1.5185 H   0  0
   37.4069  -16.6704    1.5827 H   0  0
   34.6093  -14.1148    0.7947 H   0  0
   32.5266  -12.7574    0.7868 H   0  0
   30.1827  -16.3661    0.8490 H   0  0
   32.2681  -17.7167    0.8574 H   0  0
   40.3309  -20.3623    0.7203 H   0  0
   39.8261  -21.0073   -0.8152 H   0  0
   40.9647  -19.1340   -2.0238 H   0  0
   41.4201  -18.4219   -0.4470 H   0  0
   44.4952  -21.2426   -0.0412 H   0  0
   46.7520  -20.2075   -0.0414 H   0  0
   45.1787  -16.8070   -2.1473 H   0  0
   42.9511  -17.8386   -2.1868 H   0  0
   48.7839  -15.4199    1.6927 H   0  0
  1 32  1  0
  1 33  1  0
  1 34  1  0
  2  1  1  0
  2 28  1  0
  3  2  1  0
  3 35  1  0
  3 36  1  0
  3 37  1  0
  4  5  2  0
  4 10  1  0
  5  6  1  0
  5 38  1  0
  6  7  2  0
  6 39  1  0
  7  8  1  0
  7 18  1  0
  8  9  2  0
  8 40  1  0
  9  4  1  0
  9 41  1  0
 10 11  2  0
 11 12  1  0
 12 13  2  0
 13 14  1  0
 13 42  1  0
 14 15  2  0
 14 43  1  0
 15 16  1  0
 15 31  1  0
 16 17  2  0
 16 44  1  0
 17 12  1  0
 17 45  1  0
 18 19  1  0
 18 46  1  0
 18 47  1  0
 19 20  1  0
 19 48  1  0
 19 49  1  0
 20 21  1  0
 21 22  2  0
 22 23  1  0
 22 50  1  0
 23 24  2  0
 23 51  1  0
 24 25  1  0
 24 27  1  0
 25 26  2  0
 25 52  1  0
 26 21  1  0
 26 53  1  0
 27  2  1  0
 28 29  1  0
 28 30  2  0
 29 54  1  0
M  END
> <Name>
CHEMBL4461949

> <Clean Energy>
19.5294

> <chembl_id>
CHEMBL4461949

> <chembl_pref_name>
None

> <efficacy>
0.1

> <Forcefield>
MMFF

> <ForcefieldBase>
MMFF

> <ForcefieldFFML>
<?xml version="1.0" encoding="UTF-8"?>
<!DOCTYPE ffml SYSTEM "Ffml.dtd">
<ffml version="1.0">
<forcefield name="MMFF" derivedFrom="MMFF" base="MMFF">
<atomTypes>
<atomType
name="C100"
element="C"
mass="12.011"
annotation=""/>
<atomType
name="N101"
element="N"
mass="14.007"
annotation=""/>
<atomType
name="O102"
element="O"
mass="16"
annotation=""/>
<atomType
name="Cl103"
element="Cl"
mass="35.453"
annotation=""/>
<atomType
name="H104"
element="H"
mass="1.008"
annotation=""/>
</atomTypes>
<parameters>
</parameters>
</forcefield>
</ffml>

> <Initial Potential Energy>
166.11836

> <Initial RMS Gradient>
29.99416

> <Minimization Criteria>
CONJUG> Minimization exiting with gradient tolerance ( 0.0100000) satisfied.

> <CHARMm Energy>
96.49519

> <Potential Energy>
96.49519

> <RMS Gradient>
0.00859

> <Bond Energy>
6.37857

> <Angle Energy>
12.89219

> <STRBend>
0.68561

> <Dihedral Energy>
15.85848

> <OOPLane>
0.08006

> <Van der Waals Energy>
63.78354

> <Electrostatic Energy>
-3.18325

> <Hydrogen Bond Energy>
0

> <Solvation Free Energy>
0

> <HasGasteigerCharges>
true

> <REMARK99>
REMARK  99  MacroMolecule created from Mol2 file
REMARK  99  CHEMBL4461949
REMARK  99  PROTEIN
REMARK  99  GASTEIGER
REMARK  99
REMARK  99

$$$$
CHEMBL4533202
  SciTegic05292516403D

 35 36  0  0  0  0            999 V2000
    4.9865  -25.0701    0.2597 C   0  0
    5.1993  -26.2582   -0.3918 C   0  0
    6.5132  -26.6030   -0.5781 C   0  0
    7.5704  -25.8776   -0.1906 N   0  0
    7.2702  -24.7303    0.4194 C   0  0
    6.0185  -24.3001    0.6583 N   0  0
    3.7154  -24.5457    0.5006 N   0  0
    2.4003  -25.0412    0.4081 C   0  0
    1.3447  -24.1854   -0.0114 C   0  0
    0.0017  -24.6615   -0.0514 C   0  0
   -0.2433  -26.0196    0.2248 C   0  0
    0.7989  -26.8673    0.5997 C   0  0
    2.1015  -26.3784    0.7003 C   0  0
    8.6016  -23.6710    0.9449 S   0  0
   10.0100  -24.5470    0.2046 C   0  0
   11.3351  -23.8369    0.4110 C   0  0
   12.3587  -24.4976   -0.2013 O   0  0
   11.5421  -22.8090    1.0360 O   0  0
    6.9282  -28.0618   -1.3837 Cl  0  0
   -1.9755  -26.8018    0.0993 Br  0  0
    1.6490  -22.7527   -0.3963 C   0  0
   -1.1339  -23.7416   -0.4368 C   0  0
    4.3971  -26.8746   -0.7680 H   0  0
    3.7945  -23.6164    0.9016 H   0  0
    0.5942  -27.9109    0.8338 H   0  0
    2.8768  -27.0539    1.0511 H   0  0
   10.0911  -25.5412    0.6555 H   0  0
    9.8461  -24.6322   -0.8746 H   0  0
   12.0837  -25.3135   -0.6628 H   0  0
    1.0385  -22.4361   -1.2483 H   0  0
    2.6843  -22.6198   -0.7244 H   0  0
    1.4620  -22.0902    0.4542 H   0  0
   -2.0512  -23.9764    0.1111 H   0  0
   -1.3250  -23.8129   -1.5118 H   0  0
   -0.9188  -22.6993   -0.1830 H   0  0
  1  2  2  0
  1  7  1  0
  2  3  1  0
  2 23  1  0
  3  4  2  0
  3 19  1  0
  4  5  1  0
  5  6  2  0
  5 14  1  0
  6  1  1  0
  7  8  1  0
  7 24  1  0
  8  9  2  0
  9 10  1  0
  9 21  1  0
 10 11  2  0
 10 22  1  0
 11 12  1  0
 11 20  1  0
 12 13  2  0
 12 25  1  0
 13  8  1  0
 13 26  1  0
 14 15  1  0
 15 16  1  0
 15 27  1  0
 15 28  1  0
 16 17  1  0
 16 18  2  0
 17 29  1  0
 21 30  1  0
 21 31  1  0
 21 32  1  0
 22 33  1  0
 22 34  1  0
 22 35  1  0
M  END
> <Name>
CHEMBL4533202

> <Clean Energy>
2.79311

> <chembl_id>
CHEMBL4533202

> <chembl_pref_name>
None

> <efficacy>
0.11

> <Forcefield>
MMFF

> <ForcefieldBase>
MMFF

> <ForcefieldFFML>
<?xml version="1.0" encoding="UTF-8"?>
<!DOCTYPE ffml SYSTEM "Ffml.dtd">
<ffml version="1.0">
<forcefield name="MMFF" derivedFrom="MMFF" base="MMFF">
<atomTypes>
<atomType
name="C100"
element="C"
mass="12.011"
annotation=""/>
<atomType
name="N101"
element="N"
mass="14.007"
annotation=""/>
<atomType
name="S102"
element="S"
mass="32.066"
annotation=""/>
<atomType
name="O103"
element="O"
mass="16"
annotation=""/>
<atomType
name="Cl104"
element="Cl"
mass="35.453"
annotation=""/>
<atomType
name="Br105"
element="Br"
mass="79.904"
annotation=""/>
<atomType
name="H106"
element="H"
mass="1.008"
annotation=""/>
</atomTypes>
<parameters>
</parameters>
</forcefield>
</ffml>

> <Initial Potential Energy>
20.02304

> <Initial RMS Gradient>
42.61741

> <Minimization Criteria>
CONJUG> Minimization exiting with gradient tolerance ( 0.0100000) satisfied.

> <CHARMm Energy>
-77.28017

> <Potential Energy>
-77.28017

> <RMS Gradient>
0.0065

> <Bond Energy>
3.93131

> <Angle Energy>
11.76546

> <STRBend>
0.42141

> <Dihedral Energy>
5.66442

> <OOPLane>
0.08302

> <Van der Waals Energy>
41.73985

> <Electrostatic Energy>
-140.88564

> <Hydrogen Bond Energy>
0

> <Solvation Free Energy>
0

> <HasGasteigerCharges>
true

> <REMARK99>
REMARK  99  MacroMolecule created from Mol2 file
REMARK  99  CHEMBL4533202
REMARK  99  PROTEIN
REMARK  99  GASTEIGER
REMARK  99
REMARK  99

$$$$
CHEMBL2204683
  SciTegic05292516403D

 47 49  0  0  0  0            999 V2000
   25.9289  -20.6839    0.6817 C   0  0
   25.4577  -19.5393   -0.2542 C   0  0
   25.3849  -21.7768    0.7733 O   0  0
   27.0267  -20.3984    1.4307 O   0  0
   26.5974  -19.2942   -1.2642 C   0  0
   24.3401  -19.8375   -1.1036 O   0  0
   23.0680  -20.0562   -0.6589 C   0  0
   22.0898  -20.0177   -1.6605 C   0  0
   20.7299  -20.2107   -1.3673 C   0  0
   20.3154  -20.4611   -0.0562 C   0  0
   21.2998  -20.5209    0.9409 C   0  0
   22.6597  -20.3240    0.6427 C   0  0
   18.8505  -20.5778    0.3123 C   0  0
   18.0509  -21.6825   -0.3976 C   0  0
   16.6103  -21.7474    0.1419 C   0  0
   15.8586  -22.7372   -0.5660 O   0  0
   13.7317  -22.1329    1.0607 S   0  0
   14.5711  -22.9210   -0.2210 C   0  0
   13.8418  -23.7793   -0.9036 N   0  0
   12.5524  -23.8377   -0.4036 C   0  0
   12.2974  -23.0025    0.6827 C   0  0
   11.5095  -24.6514   -0.8931 C   0  0
   10.2489  -24.6102   -0.2873 C   0  0
   10.0177  -23.7692    0.7970 C   0  0
   11.0354  -22.9517    1.3003 C   0  0
   25.2113  -18.2359    0.5211 C   0  0
   27.4559  -19.5344    1.2835 H   0  0
   26.3095  -18.5352   -2.0016 H   0  0
   26.8162  -20.2099   -1.8272 H   0  0
   27.5258  -18.9669   -0.7858 H   0  0
   22.3908  -19.8222   -2.6881 H   0  0
   20.0013  -20.1495   -2.1726 H   0  0
   21.0179  -20.7217    1.9731 H   0  0
   23.3646  -20.4089    1.4608 H   0  0
   18.7682  -20.7363    1.3956 H   0  0
   18.3809  -19.6049    0.1160 H   0  0
   18.0260  -21.5111   -1.4804 H   0  0
   18.5358  -22.6568   -0.2587 H   0  0
   16.6450  -22.0004    1.2087 H   0  0
   16.1379  -20.7659    0.0118 H   0  0
   11.7003  -25.3031   -1.7399 H   0  0
    9.4474  -25.2402   -0.6677 H   0  0
    9.0331  -23.7462    1.2601 H   0  0
   10.8551  -22.2952    2.1459 H   0  0
   24.7595  -17.4744   -0.1247 H   0  0
   26.1369  -17.8246    0.9376 H   0  0
   24.5301  -18.3881    1.3637 H   0  0
  1  2  1  0
  1  3  2  0
  1  4  1  0
  2  5  1  0
  2  6  1  0
  2 26  1  0
  4 27  1  0
  5 28  1  0
  5 29  1  0
  5 30  1  0
  6  7  1  0
  7  8  1  0
  7 12  2  0
  8  9  2  0
  8 31  1  0
  9 10  1  0
  9 32  1  0
 10 11  2  0
 10 13  1  0
 11 12  1  0
 11 33  1  0
 12 34  1  0
 13 14  1  0
 13 35  1  0
 13 36  1  0
 14 15  1  0
 14 37  1  0
 14 38  1  0
 15 16  1  0
 15 39  1  0
 15 40  1  0
 16 18  1  0
 17 18  1  0
 17 21  1  0
 18 19  2  0
 19 20  1  0
 20 21  1  0
 20 22  2  0
 21 25  2  0
 22 23  1  0
 22 41  1  0
 23 24  2  0
 23 42  1  0
 24 25  1  0
 24 43  1  0
 25 44  1  0
 26 45  1  0
 26 46  1  0
 26 47  1  0
M  END
> <Name>
CHEMBL2204683

> <Clean Energy>
42.617298

> <chembl_id>
CHEMBL2204683

> <chembl_pref_name>
None

> <efficacy>
0.218423552

> <Forcefield>
MMFF

> <ForcefieldBase>
MMFF

> <ForcefieldFFML>
<?xml version="1.0" encoding="UTF-8"?>
<!DOCTYPE ffml SYSTEM "Ffml.dtd">
<ffml version="1.0">
<forcefield name="MMFF" derivedFrom="MMFF" base="MMFF">
<atomTypes>
<atomType
name="C100"
element="C"
mass="12.011"
annotation=""/>
<atomType
name="O101"
element="O"
mass="16"
annotation=""/>
<atomType
name="S102"
element="S"
mass="32.066"
annotation=""/>
<atomType
name="N103"
element="N"
mass="14.007"
annotation=""/>
<atomType
name="H104"
element="H"
mass="1.008"
annotation=""/>
</atomTypes>
<parameters>
</parameters>
</forcefield>
</ffml>

> <Initial Potential Energy>
122.86579

> <Initial RMS Gradient>
30.08202

> <Minimization Criteria>
CONJUG> Minimization exiting with gradient tolerance ( 0.0100000) satisfied.

> <CHARMm Energy>
55.91107

> <Potential Energy>
55.91107

> <RMS Gradient>
0.00917

> <Bond Energy>
6.25088

> <Angle Energy>
24.84165

> <STRBend>
-0.38503

> <Dihedral Energy>
-2.16593

> <OOPLane>
0.03435

> <Van der Waals Energy>
44.1992

> <Electrostatic Energy>
-16.86406

> <Hydrogen Bond Energy>
0

> <Solvation Free Energy>
0

> <HasGasteigerCharges>
true

> <REMARK99>
REMARK  99  MacroMolecule created from Mol2 file
REMARK  99  CHEMBL2204683
REMARK  99  PROTEIN
REMARK  99  GASTEIGER
REMARK  99
REMARK  99

$$$$
CHEMBL461944
  SciTegic05292516403D

 52 55  0  0  0  0            999 V2000
   -5.0916  -13.9094   -1.5364 C   0  0
   -5.1961  -15.2144   -1.9969 C   0  0
   -4.5523  -16.2281   -1.2874 C   0  0
   -4.3955  -13.4961   -0.4559 N   0  0
   -3.7878  -14.5106    0.1936 C   0  0
   -3.8315  -15.8607   -0.1398 C   0  0
   -3.0369  -16.5306    0.8193 C   0  0
   -2.5846  -15.6179    1.7567 C   0  0
   -2.9533  -14.3708    1.2815 N   0  0
   -1.7958  -15.8286    3.0002 C   0  0
   -2.4340  -13.0803    1.7266 C   0  0
   -1.3610  -12.5705    0.7823 C   0  0
   -0.2974  -13.3944    0.3763 C   0  0
    0.6523  -12.9393   -0.5376 C   0  0
    0.5519  -11.6520   -1.0666 C   0  0
   -0.4751  -10.8084   -0.6437 C   0  0
   -1.4260  -11.2640    0.2767 C   0  0
   -2.7556  -17.8527    0.8325 O   0  0
   -1.4596  -18.2658    0.6082 C   0  0
   -1.0493  -19.4321    1.2547 C   0  0
    0.2557  -19.8996    1.0842 C   0  0
    1.1390  -19.2062    0.2573 C   0  0
    0.7254  -18.0569   -0.4131 C   0  0
   -0.5784  -17.5884   -0.2430 C   0  0
    1.5846  -13.8447   -0.9735 O   0  0
    2.8592  -13.6783   -0.3211 C   0  0  2  0  0  0
    3.9382  -14.0540   -1.3377 C   0  0
    2.9466  -14.6114    0.8805 C   0  0
    3.4747  -14.1416   -2.6093 O   0  0
    5.1113  -14.2522   -1.0577 O   0  0
    2.7519  -19.7695    0.0626 Cl  0  0
    1.6533  -11.0896   -2.2668 Cl  0  0
   -5.9275  -12.6446   -2.3537 Cl  0  0
   -5.7583  -15.4460   -2.8928 H   0  0
   -4.5976  -17.2623   -1.6122 H   0  0
   -2.2070  -15.2417    3.8278 H   0  0
   -0.7509  -15.5415    2.8516 H   0  0
   -1.8182  -16.8784    3.3084 H   0  0
   -3.2860  -12.3932    1.7850 H   0  0
   -2.0216  -13.1843    2.7342 H   0  0
   -0.2194  -14.4160    0.7388 H   0  0
   -0.5616   -9.8025   -1.0481 H   0  0
   -2.2404  -10.6005    0.5644 H   0  0
   -1.7394  -19.9699    1.8993 H   0  0
    0.5763  -20.8017    1.5972 H   0  0
    1.4094  -17.5249   -1.0690 H   0  0
   -0.8939  -16.6997   -0.7824 H   0  0
    3.0395  -12.6365   -0.0282 H   0  0
    3.9378  -14.5751    1.3438 H   0  0
    2.7438  -15.6477    0.5882 H   0  0
    2.2065  -14.3424    1.6403 H   0  0
    2.5113  -13.9495   -2.6283 H   0  0
  1  2  2  0
  1 33  1  0
  2  3  1  0
  2 34  1  0
  3  6  2  0
  3 35  1  0
  4  1  1  0
  5  4  2  0
  5  6  1  0
  6  7  1  0
  7  8  2  0
  7 18  1  0
  8  9  1  0
  8 10  1  0
  9  5  1  0
  9 11  1  0
 10 36  1  0
 10 37  1  0
 10 38  1  0
 11 12  1  0
 11 39  1  0
 11 40  1  0
 12 13  2  0
 13 14  1  0
 13 41  1  0
 14 15  2  0
 14 25  1  0
 15 16  1  0
 15 32  1  0
 16 17  2  0
 16 42  1  0
 17 12  1  0
 17 43  1  0
 18 19  1  0
 19 20  2  0
 20 21  1  0
 20 44  1  0
 21 22  2  0
 21 45  1  0
 22 23  1  0
 22 31  1  0
 23 24  2  0
 23 46  1  0
 24 19  1  0
 24 47  1  0
 25 26  1  0
 26 27  1  0
 26 28  1  0
 26 48  1  0
 27 29  1  0
 27 30  2  0
 28 49  1  0
 28 50  1  0
 28 51  1  0
 29 52  1  0
M  END
> <Name>
CHEMBL461944

> <Clean Energy>
101.335999

> <chembl_id>
CHEMBL461944

> <chembl_pref_name>
None

> <efficacy>
0.2

> <Forcefield>
MMFF

> <ForcefieldBase>
MMFF

> <ForcefieldFFML>
<?xml version="1.0" encoding="UTF-8"?>
<!DOCTYPE ffml SYSTEM "Ffml.dtd">
<ffml version="1.0">
<forcefield name="MMFF" derivedFrom="MMFF" base="MMFF">
<atomTypes>
<atomType
name="C100"
element="C"
mass="12.011"
annotation=""/>
<atomType
name="N101"
element="N"
mass="14.007"
annotation=""/>
<atomType
name="O102"
element="O"
mass="16"
annotation=""/>
<atomType
name="Cl103"
element="Cl"
mass="35.453"
annotation=""/>
<atomType
name="H104"
element="H"
mass="1.008"
annotation=""/>
</atomTypes>
<parameters>
</parameters>
</forcefield>
</ffml>

> <Initial Potential Energy>
275.34141

> <Initial RMS Gradient>
36.36103

> <Minimization Criteria>
STEEPD> Minimization exiting with gradient tolerance ( 3.0000000) satisfied.

> <CHARMm Energy>
96.82422

> <Potential Energy>
96.82422

> <RMS Gradient>
0.06154

> <Bond Energy>
5.0211

> <Angle Energy>
7.95982

> <STRBend>
1.13855

> <Dihedral Energy>
16.22376

> <OOPLane>
0.19298

> <Van der Waals Energy>
57.12645

> <Electrostatic Energy>
9.16155

> <Hydrogen Bond Energy>
0

> <Solvation Free Energy>
0

> <HasGasteigerCharges>
true

> <REMARK99>
REMARK  99  MacroMolecule created from Mol2 file
REMARK  99  CHEMBL461944
REMARK  99  PROTEIN
REMARK  99  GASTEIGER
REMARK  99
REMARK  99

$$$$
CHEMBL4279086
  SciTegic05292516403D

 75 79  0  0  0  0            999 V2000
   17.5782  -27.0208    1.3414 O   0  0
   17.3643  -26.6451   -0.0383 S   0  0
   17.9398  -27.3823   -1.1418 O   0  0
    5.3112  -23.2562    0.9987 C   0  0
    5.1684  -24.4161    0.2398 C   0  0
    6.3133  -25.0760   -0.2502 C   0  0
    6.5808  -22.7470    1.2999 C   0  0
    7.7064  -23.4241    0.8123 C   0  0
    7.6072  -24.5795    0.0351 C   0  0
    8.9443  -24.9961   -0.3149 C   0  0
    9.7958  -24.0719    0.2707 C   0  0
    9.0482  -23.1563    0.9586 N   0  0
    9.5952  -22.0598    1.7249 C   0  0
    3.9129  -24.9752   -0.0867 N   0  0
    2.6575  -24.5347    0.3053 C   0  0
    1.6592  -25.2891   -0.2853 N   0  0
    2.4017  -23.6164    1.0733 O   0  0
    0.2464  -25.0463   -0.0213 C   0  0
    9.2790  -26.1802   -1.1823 C   0  0
   10.7242  -26.5774   -0.9478 C   0  0
   11.0811  -27.5172    0.0406 C   0  0
   12.4296  -27.8267    0.2446 C   0  0
   13.4260  -27.1982   -0.5130 C   0  0
   13.0834  -26.2856   -1.5131 C   0  0
   11.7384  -25.9840   -1.7304 C   0  0
   10.0475  -28.0737    0.7479 O   0  0
   10.3847  -29.0101    1.7665 C   0  0
   14.8323  -27.5245   -0.1936 C   0  0
   15.1370  -28.6427    0.1863 O   0  0
   15.7334  -26.4611   -0.3354 N   0  0
   17.9301  -24.9619   -0.1871 C   0  0
   18.6780  -24.5691   -1.3013 C   0  0
   19.1444  -23.2574   -1.3826 C   0  0
   18.8679  -22.3509   -0.3572 C   0  0
   18.1294  -22.7514    0.7577 C   0  0
   17.6601  -24.0611    0.8494 C   0  0
   -0.3120  -23.9987   -0.9922 C   0  0
   -1.8070  -23.7747   -0.7802 C   0  0
   -2.5908  -25.0814   -0.8552 C   0  0
   -2.0352  -26.1308    0.1036 C   0  0
   -0.5415  -26.3576   -0.1131 C   0  0
    4.4455  -22.7153    1.3796 H   0  0
    6.1996  -25.9719   -0.8529 H   0  0
    6.6812  -21.8487    1.8979 H   0  0
   10.8758  -24.0021    0.2625 H   0  0
    9.2779  -21.1230    1.2594 H   0  0
   10.6867  -22.1205    1.7279 H   0  0
    9.2202  -22.1301    2.7492 H   0  0
    3.9123  -25.8148   -0.6425 H   0  0
    1.9065  -25.9179   -1.0329 H   0  0
    0.1553  -24.6583    1.0017 H   0  0
    8.6076  -27.0216   -0.9781 H   0  0
    9.1301  -25.9152   -2.2360 H   0  0
   12.7393  -28.5437    1.0006 H   0  0
   13.8432  -25.8282   -2.1440 H   0  0
   11.4745  -25.2680   -2.5077 H   0  0
   10.9924  -28.5442    2.5496 H   0  0
   10.8808  -29.8905    1.3449 H   0  0
    9.4508  -29.3480    2.2269 H   0  0
   15.4087  -25.5160   -0.5001 H   0  0
   18.9169  -25.2743   -2.0953 H   0  0
   19.7380  -22.9450   -2.2387 H   0  0
   19.2435  -21.3322   -0.4182 H   0  0
   17.9361  -22.0447    1.5612 H   0  0
   17.1083  -24.3782    1.7319 H   0  0
    0.2203  -23.0476   -0.8687 H   0  0
   -0.1355  -24.3199   -2.0269 H   0  0
   -1.9702  -23.3080    0.1988 H   0  0
   -2.1857  -23.0754   -1.5346 H   0  0
   -3.6450  -24.8931   -0.6229 H   0  0
   -2.5548  -25.4691   -1.8805 H   0  0
   -2.2088  -25.8076    1.1373 H   0  0
   -2.5746  -27.0752   -0.0316 H   0  0
   -0.3814  -26.8241   -1.0943 H   0  0
   -0.1683  -27.0703    0.6328 H   0  0
  2  1  2  0
  2 31  1  0
  3  2  2  0
  4  5  2  0
  4 42  1  0
  5  6  1  0
  5 14  1  0
  6  9  2  0
  6 43  1  0
  7  4  1  0
  7 44  1  0
  8  7  2  0
  8  9  1  0
  9 10  1  0
 10 11  2  0
 10 19  1  0
 11 12  1  0
 11 45  1  0
 12  8  1  0
 12 13  1  0
 13 46  1  0
 13 47  1  0
 13 48  1  0
 14 15  1  0
 14 49  1  0
 15 16  1  0
 15 17  2  0
 16 18  1  0
 16 50  1  0
 18 37  1  0
 18 41  1  0
 18 51  1  0
 19 20  1  0
 19 52  1  0
 19 53  1  0
 20 21  2  0
 21 22  1  0
 21 26  1  0
 22 23  2  0
 22 54  1  0
 23 24  1  0
 23 28  1  0
 24 25  2  0
 24 55  1  0
 25 20  1  0
 25 56  1  0
 26 27  1  0
 27 57  1  0
 27 58  1  0
 27 59  1  0
 28 29  2  0
 28 30  1  0
 30  2  1  0
 30 60  1  0
 31 32  2  0
 32 33  1  0
 32 61  1  0
 33 34  2  0
 33 62  1  0
 34 35  1  0
 34 63  1  0
 35 36  2  0
 35 64  1  0
 36 31  1  0
 36 65  1  0
 37 38  1  0
 37 66  1  0
 37 67  1  0
 38 39  1  0
 38 68  1  0
 38 69  1  0
 39 40  1  0
 39 70  1  0
 39 71  1  0
 40 41  1  0
 40 72  1  0
 40 73  1  0
 41 74  1  0
 41 75  1  0
M  END
> <Name>
CHEMBL4279086

> <Clean Energy>
56.908901

> <chembl_id>
CHEMBL4279086

> <chembl_pref_name>
None

> <efficacy>
0.341880342

> <Forcefield>
MMFF

> <ForcefieldBase>
MMFF

> <ForcefieldFFML>
<?xml version="1.0" encoding="UTF-8"?>
<!DOCTYPE ffml SYSTEM "Ffml.dtd">
<ffml version="1.0">
<forcefield name="MMFF" derivedFrom="MMFF" base="MMFF">
<atomTypes>
<atomType
name="O100"
element="O"
mass="16"
annotation=""/>
<atomType
name="S101"
element="S"
mass="32.066"
annotation=""/>
<atomType
name="C102"
element="C"
mass="12.011"
annotation=""/>
<atomType
name="N103"
element="N"
mass="14.007"
annotation=""/>
<atomType
name="H104"
element="H"
mass="1.008"
annotation=""/>
</atomTypes>
<parameters>
</parameters>
</forcefield>
</ffml>

> <Initial Potential Energy>
115.89903

> <Initial RMS Gradient>
43.41169

> <Minimization Criteria>
STEEPD> Minimization exiting with gradient tolerance ( 3.0000000) satisfied.

> <CHARMm Energy>
-89.29635

> <Potential Energy>
-89.29635

> <RMS Gradient>
0.14444

> <Bond Energy>
8.4009

> <Angle Energy>
18.59679

> <STRBend>
-0.28314

> <Dihedral Energy>
-10.7657

> <OOPLane>
0.12519

> <Van der Waals Energy>
74.42999

> <Electrostatic Energy>
-179.80039

> <Hydrogen Bond Energy>
0

> <Solvation Free Energy>
0

> <HasGasteigerCharges>
true

> <REMARK99>
REMARK  99  MacroMolecule created from Mol2 file
REMARK  99  CHEMBL4279086
REMARK  99  PROTEIN
REMARK  99  GASTEIGER
REMARK  99
REMARK  99

$$$$
CHEMBL1801743
  SciTegic05292516403D

 68 74  0  0  0  0            999 V2000
   -9.1877  -25.2953   -0.6153 C   0  0
   -8.5980  -24.0318   -0.3787 C   0  0
   -8.4684  -26.5487   -0.8869 C   0  0
   -7.1555  -23.7370   -0.3104 C   0  0
   -6.5544  -22.9419   -1.3153 C   0  0
   -6.4014  -24.0845    0.8228 C   0  0
   -5.2642  -22.4264   -1.1673 C   0  0
  -10.5994  -25.3814   -0.6057 C   0  0
   -9.4490  -22.9214   -0.1509 C   0  0
  -11.4148  -24.2706   -0.3818 C   0  0
  -10.8357  -23.0350   -0.1555 C   0  0
   -4.5792  -22.6975    0.0055 C   0  0
   -5.1223  -23.5606    0.9645 C   0  0
   -4.1569  -23.7983    2.0839 C   0  0
   -3.1696  -22.6332    1.9219 C   0  0
   -3.2328  -22.1815    0.4460 C   0  0  2  0  0  0
   -3.0421  -20.7446    0.2839 N   0  0
   -3.2930  -18.5252    0.3445 N   0  0
   -1.8722  -20.2026   -0.1936 C   0  0
   -3.8729  -19.6845    0.6215 C   0  0
   -2.0513  -18.8323   -0.1447 C   0  0
    0.2453  -20.0732   -0.9825 C   0  0
   -0.7816  -20.8691   -0.6064 N   0  0
   -0.9910  -18.0103   -0.5633 C   0  0
    0.1788  -18.6737   -0.9873 C   0  0
   -5.2464  -19.8202    1.2061 C   0  0
   -1.0478  -16.5128   -0.5551 C   0  0
   -5.6718  -18.5786    1.9786 C   0  0
   -7.1519  -26.6800   -1.2401 N   0  0
   -6.8467  -27.9684   -1.4530 N   0  0
   -7.9712  -28.6299   -1.2327 N   0  0
   -8.9862  -27.7721   -0.8922 N   0  0
    1.4942  -20.7731   -1.4875 C   0  0
    1.9183  -21.9672   -0.6578 C   0  0
    1.2765  -23.2066   -0.8162 C   0  0
    1.6417  -24.3032   -0.0344 C   0  0
    2.6529  -24.1743    0.9141 C   0  0
    3.2927  -22.9476    1.0852 C   0  0
    2.9275  -21.8477    0.3061 C   0  0
   -7.1273  -22.6645   -2.2004 H   0  0
   -6.8369  -24.6963    1.6115 H   0  0
   -4.8393  -21.7807   -1.9317 H   0  0
  -11.0795  -26.3418   -0.7845 H   0  0
   -9.0180  -21.9400    0.0483 H   0  0
  -12.4954  -24.3755   -0.3851 H   0  0
  -11.4468  -22.1556    0.0234 H   0  0
   -4.6426  -23.7723    3.0636 H   0  0
   -3.6546  -24.7612    1.9446 H   0  0
   -3.4569  -21.8219    2.6028 H   0  0
   -2.1531  -22.9228    2.2119 H   0  0
   -2.4688  -22.7099   -0.1372 H   0  0
    1.0355  -18.0869   -1.3159 H   0  0
   -5.9644  -19.9938    0.3975 H   0  0
   -5.2992  -20.6708    1.8899 H   0  0
   -0.2972  -16.1118    0.1333 H   0  0
   -2.0305  -16.1533   -0.2343 H   0  0
   -0.8566  -16.1225   -1.5598 H   0  0
   -6.6678  -18.7241    2.4089 H   0  0
   -5.7120  -17.6983    1.3281 H   0  0
   -4.9755  -18.3639    2.7964 H   0  0
   -6.4418  -25.9752   -1.3747 H   0  0
    1.3157  -21.0948   -2.5215 H   0  0
    2.3292  -20.0622   -1.5347 H   0  0
    0.4620  -23.3136   -1.5321 H   0  0
    1.1263  -25.2522   -0.1605 H   0  0
    2.9410  -25.0273    1.5232 H   0  0
    4.0803  -22.8450    1.8280 H   0  0
    3.4398  -20.8995    0.4599 H   0  0
  1  2  1  0
  2  4  1  0
  3  1  1  0
  3 29  1  0
  4  5  2  0
  5  7  1  0
  5 40  1  0
  6  4  1  0
  6 13  2  0
  6 41  1  0
  7 12  2  0
  7 42  1  0
  8  1  2  0
  8 10  1  0
  8 43  1  0
  9  2  2  0
  9 44  1  0
 10 11  2  0
 10 45  1  0
 11  9  1  0
 11 46  1  0
 12 13  1  0
 13 14  1  0
 14 15  1  0
 14 47  1  0
 14 48  1  0
 15 16  1  0
 15 49  1  0
 15 50  1  0
 16 12  1  0
 16 17  1  0
 16 51  1  0
 17 19  1  0
 18 20  2  0
 18 21  1  0
 19 21  2  0
 19 23  1  0
 20 17  1  0
 21 24  1  0
 22 33  1  0
 23 22  2  0
 24 25  2  0
 25 22  1  0
 25 52  1  0
 26 20  1  0
 26 53  1  0
 26 54  1  0
 27 24  1  0
 27 55  1  0
 27 56  1  0
 27 57  1  0
 28 26  1  0
 28 58  1  0
 28 59  1  0
 28 60  1  0
 29 30  1  0
 29 61  1  0
 30 31  2  0
 31 32  1  0
 32  3  2  0
 33 34  1  0
 33 62  1  0
 33 63  1  0
 34 35  2  0
 35 36  1  0
 35 64  1  0
 36 37  2  0
 36 65  1  0
 37 38  1  0
 37 66  1  0
 38 39  2  0
 38 67  1  0
 39 34  1  0
 39 68  1  0
M  END
> <Name>
CHEMBL1801743

> <Clean Energy>
96.144402

> <chembl_id>
CHEMBL1801743

> <chembl_pref_name>
None

> <efficacy>
0.293478261

> <Forcefield>
MMFF

> <ForcefieldBase>
MMFF

> <ForcefieldFFML>
<?xml version="1.0" encoding="UTF-8"?>
<!DOCTYPE ffml SYSTEM "Ffml.dtd">
<ffml version="1.0">
<forcefield name="MMFF" derivedFrom="MMFF" base="MMFF">
<atomTypes>
<atomType
name="C100"
element="C"
mass="12.011"
annotation=""/>
<atomType
name="N101"
element="N"
mass="14.007"
annotation=""/>
<atomType
name="H102"
element="H"
mass="1.008"
annotation=""/>
</atomTypes>
<parameters>
</parameters>
</forcefield>
</ffml>

> <Initial Potential Energy>
298.93078

> <Initial RMS Gradient>
37.64248

> <Minimization Criteria>
CONJUG> Minimization exiting with gradient tolerance ( 0.0100000) satisfied.

> <CHARMm Energy>
118.91449

> <Potential Energy>
118.91449

> <RMS Gradient>
0.00891

> <Bond Energy>
9.89927

> <Angle Energy>
16.1402

> <STRBend>
-0.67168

> <Dihedral Energy>
8.37905

> <OOPLane>
0.22289

> <Van der Waals Energy>
70.48925

> <Electrostatic Energy>
14.45552

> <Hydrogen Bond Energy>
0

> <Solvation Free Energy>
0

> <HasGasteigerCharges>
true

> <REMARK99>
REMARK  99  MacroMolecule created from Mol2 file
REMARK  99  CHEMBL1801743
REMARK  99  PROTEIN
REMARK  99  GASTEIGER
REMARK  99
REMARK  99

$$$$
CHEMBL2322172
  SciTegic05292516403D

 65 71  0  0  0  0            999 V2000
   32.7435  -12.0653    0.6643 C   0  0
   33.8381  -11.9868    1.5194 C   0  0
   34.9746  -11.3326    1.0729 C   0  0
   35.0866  -10.7625   -0.1463 N   0  0
   34.0026  -10.8514   -0.9523 C   0  0
   32.8139  -11.4870   -0.6063 C   0  0
   29.4699  -11.2322   -0.4760 C   0  0
   30.5549  -10.6752   -1.2013 N   0  0
   30.5936   -9.3248   -1.5747 C   0  0
   29.5862   -8.4827   -1.2808 C   0  0
   28.4150  -10.2890   -0.1901 C   0  0
   28.4682   -8.9778   -0.5755 C   0  0
   27.3766   -8.2749   -0.2086 N   0  0
   26.6180   -9.1416    0.4463 C   0  0
   27.2050  -10.4059    0.4608 N   0  0
   25.3026   -8.7673    1.0575 C   0  0
   25.4822   -7.7287    2.1556 C   0  0
   26.6816  -11.6477    0.9988 C   0  0  1  0  0  0
   25.4013  -12.7207    2.7977 C   0  0
   26.5111  -11.6910    2.5288 C   0  0
   24.5832  -12.6329    1.5441 C   0  0
   25.3028  -12.0089    0.5173 C   0  0
   24.7589  -11.8533   -0.7467 C   0  0
   23.4687  -12.3256   -0.9701 C   0  0
   22.7398  -12.9873    0.0446 C   0  0
   23.3098  -13.1294    1.3213 C   0  0
   21.4182  -13.5536   -0.2688 C   0  0
   20.2811  -13.0034    0.3485 C   0  0
   19.0019  -13.4374    0.0084 C   0  0
   18.8354  -14.4257   -0.9563 C   0  0
   19.9493  -14.9954   -1.5718 C   0  0
   21.2456  -14.5849   -1.2279 C   0  0
   22.3761  -15.2309   -1.8920 C   0  0
   23.4906  -15.6999   -1.2504 N   0  0
   24.3841  -16.1602   -2.1359 N   0  0
   23.7866  -16.0381   -3.3129 N   0  0
   22.5388  -15.4730   -3.1785 N   0  0
   29.4432  -12.4072   -0.1187 O   0  0
   31.6618  -11.5538   -1.5718 C   0  0
   31.8425  -12.5830    0.9868 H   0  0
   33.8089  -12.4296    2.5083 H   0  0
   35.8557  -11.2512    1.7035 H   0  0
   34.1238  -10.3828   -1.9250 H   0  0
   31.4707   -8.9808   -2.1169 H   0  0
   29.6104   -7.4396   -1.5727 H   0  0
   24.6609   -8.3522    0.2712 H   0  0
   24.7684   -9.6208    1.4748 H   0  0
   24.5123   -7.4631    2.5880 H   0  0
   25.9408   -6.8129    1.7671 H   0  0
   26.1215   -8.1094    2.9593 H   0  0
   27.3285  -12.4739    0.6971 H   0  0
   25.8168  -13.7282    2.9032 H   0  0
   24.8245  -12.4593    3.6894 H   0  0
   26.2048  -10.7172    2.9290 H   0  0
   27.4446  -11.9541    3.0381 H   0  0
   25.3128  -11.3806   -1.5532 H   0  0
   23.0290  -12.2026   -1.9610 H   0  0
   22.7709  -13.6343    2.1189 H   0  0
   20.3859  -12.2012    1.0773 H   0  0
   18.1357  -12.9845    0.4827 H   0  0
   17.8384  -14.7463   -1.2393 H   0  0
   19.8055  -15.7618   -2.3312 H   0  0
   23.7033  -15.7092   -0.2621 H   0  0
   31.3141  -12.5926   -1.6322 H   0  0
   31.9883  -11.2928   -2.5869 H   0  0
  1  2  2  0
  1 40  1  0
  2  3  1  0
  2 41  1  0
  3  4  2  0
  3 42  1  0
  4  5  1  0
  5  6  2  0
  5 43  1  0
  6  1  1  0
  7  8  1  0
  7 38  2  0
  8  9  1  0
  8 39  1  0
  9 10  2  0
  9 44  1  0
 10 12  1  0
 10 45  1  0
 11  7  1  0
 11 12  2  0
 12 13  1  0
 13 14  2  0
 14 15  1  0
 14 16  1  0
 15 11  1  0
 16 17  1  0
 16 46  1  0
 16 47  1  0
 17 48  1  0
 17 49  1  0
 17 50  1  0
 18 15  1  0
 18 22  1  0
 18 51  1  0
 19 20  1  0
 19 52  1  0
 19 53  1  0
 20 18  1  0
 20 54  1  0
 20 55  1  0
 21 19  1  0
 21 22  2  0
 22 23  1  0
 23 24  2  0
 23 56  1  0
 24 25  1  0
 24 57  1  0
 25 26  2  0
 25 27  1  0
 26 21  1  0
 26 58  1  0
 27 28  2  0
 28 29  1  0
 28 59  1  0
 29 30  2  0
 29 60  1  0
 30 31  1  0
 30 61  1  0
 31 32  2  0
 31 62  1  0
 32 27  1  0
 32 33  1  0
 33 34  1  0
 34 35  1  0
 34 63  1  0
 35 36  2  0
 36 37  1  0
 37 33  2  0
 39  6  1  0
 39 64  1  0
 39 65  1  0
M  END
> <Name>
CHEMBL2322172

> <Clean Energy>
107.377998

> <chembl_id>
CHEMBL2322172

> <chembl_pref_name>
None

> <efficacy>
0.347826087

> <Forcefield>
MMFF

> <ForcefieldBase>
MMFF

> <ForcefieldFFML>
<?xml version="1.0" encoding="UTF-8"?>
<!DOCTYPE ffml SYSTEM "Ffml.dtd">
<ffml version="1.0">
<forcefield name="MMFF" derivedFrom="MMFF" base="MMFF">
<atomTypes>
<atomType
name="C100"
element="C"
mass="12.011"
annotation=""/>
<atomType
name="N101"
element="N"
mass="14.007"
annotation=""/>
<atomType
name="O102"
element="O"
mass="16"
annotation=""/>
<atomType
name="H103"
element="H"
mass="1.008"
annotation=""/>
</atomTypes>
<parameters>
</parameters>
</forcefield>
</ffml>

> <Initial Potential Energy>
235.71316

> <Initial RMS Gradient>
37.14068

> <Minimization Criteria>
CONJUG> Minimization exiting with gradient tolerance ( 0.0100000) satisfied.

> <CHARMm Energy>
60.629

> <Potential Energy>
60.629

> <RMS Gradient>
0.00987

> <Bond Energy>
8.90449

> <Angle Energy>
19.25328

> <STRBend>
-0.50734

> <Dihedral Energy>
6.98625

> <OOPLane>
0.08693

> <Van der Waals Energy>
69.7143

> <Electrostatic Energy>
-43.8089

> <Hydrogen Bond Energy>
0

> <Solvation Free Energy>
0

> <HasGasteigerCharges>
true

> <REMARK99>
REMARK  99  MacroMolecule created from Mol2 file
REMARK  99  CHEMBL2322172
REMARK  99  PROTEIN
REMARK  99  GASTEIGER
REMARK  99
REMARK  99

$$$$
CHEMBL198170
  SciTegic05292516403D

 65 66  0  0  0  0            999 V2000
    8.6212   -1.6035    0.3683 C   0  0
    7.5144   -0.8573   -0.0793 C   0  0
    8.5520   -3.0064    0.3182 C   0  0
    7.4059   -3.6354   -0.1842 C   0  0
    6.3549   -1.4790   -0.5675 C   0  0
    6.3011   -2.8871   -0.6240 C   0  0
   19.3270    0.8116   -2.0827 C   0  0
   20.1421    0.1364   -1.4669 O   0  0
    9.8737   -0.8993    0.8603 C   0  0  2  0  0  0
    9.6684   -3.6881    0.7343 O   0  0
   19.5678    2.0689   -2.5547 O   0  0
    9.4930    0.3172    1.5148 O   0  0
   17.9452    0.3640   -2.4612 C   0  0
    5.2510   -0.7293   -1.0052 C   0  0
    5.1437   -3.5090   -1.1225 C   0  0
   10.8203   -0.6193   -0.3106 C   0  0
    9.4423   -5.0032    1.2504 C   0  0
   20.8991    2.5373   -2.3184 C   0  0
   16.9747    0.5707   -1.3101 C   0  0
   12.2035   -0.1607    0.1563 C   0  0
   10.7016   -5.4276    2.0022 C   0  0
   11.8193   -7.2397    3.3564 C   0  0
   10.5544   -6.8218    2.6073 C   0  0
   13.1787   -0.1254   -1.0181 C   0  0
   14.5802    0.2803   -0.5688 C   0  0
   15.5602    0.1883   -1.7349 C   0  0
   11.6664   -8.6179    3.9804 C   0  0
    4.1073   -1.3617   -1.4943 C   0  0
    4.0542   -2.7508   -1.5540 C   0  0
    7.5608    0.2303   -0.0390 H   0  0
    7.3592   -4.7173   -0.2584 H   0  0
   10.3651   -1.5139    1.6231 H   0  0
   10.3174    0.7188    1.8387 H   0  0
   17.6212    0.9103   -3.3551 H   0  0
   18.0005   -0.6919   -2.7500 H   0  0
    5.2768    0.3576   -0.9660 H   0  0
    5.0820   -4.5934   -1.1765 H   0  0
   10.9346   -1.5279   -0.9157 H   0  0
   10.3948    0.1533   -0.9640 H   0  0
    8.5872   -5.0079    1.9378 H   0  0
    9.2612   -5.6978    0.4221 H   0  0
   20.9859    3.5387   -2.7487 H   0  0
   21.6270    1.8839   -2.8094 H   0  0
   21.0959    2.6022   -1.2438 H   0  0
   17.2881   -0.0356   -0.4513 H   0  0
   16.9952    1.6170   -0.9814 H   0  0
   12.1399    0.8332    0.6135 H   0  0
   12.5815   -0.8493    0.9217 H   0  0
   11.5593   -5.3977    1.3186 H   0  0
   10.9185   -4.6937    2.7886 H   0  0
   12.6730   -7.2483    2.6687 H   0  0
   12.0441   -6.5114    4.1443 H   0  0
   10.3415   -7.5473    1.8129 H   0  0
    9.6993   -6.8353    3.2941 H   0  0
   13.2194   -1.1170   -1.4864 H   0  0
   12.8169    0.5757   -1.7801 H   0  0
   14.5618    1.3027   -0.1730 H   0  0
   14.9144   -0.3775    0.2428 H   0  0
   15.2299    0.8465   -2.5480 H   0  0
   15.5608   -0.8352   -2.1302 H   0  0
   12.5836   -8.9008    4.5065 H   0  0
   11.4664   -9.3751    3.2155 H   0  0
   10.8430   -8.6320    4.7018 H   0  0
    3.2603   -0.7683   -1.8281 H   0  0
    3.1650   -3.2453   -1.9354 H   0  0
  2  1  2  0
  2 30  1  0
  3  1  1  0
  4  3  2  0
  4 31  1  0
  5  2  1  0
  6  4  1  0
  6  5  2  0
  7 13  1  0
  8  7  2  0
  9  1  1  0
  9 32  1  0
 10  3  1  0
 11  7  1  0
 12  9  1  0
 12 33  1  0
 13 19  1  0
 13 34  1  0
 13 35  1  0
 14  5  1  0
 14 36  1  0
 15  6  1  0
 15 37  1  0
 16  9  1  0
 16 38  1  0
 16 39  1  0
 17 10  1  0
 17 40  1  0
 17 41  1  0
 18 11  1  0
 18 42  1  0
 18 43  1  0
 18 44  1  0
 19 26  1  0
 19 45  1  0
 19 46  1  0
 20 16  1  0
 20 47  1  0
 20 48  1  0
 21 17  1  0
 21 49  1  0
 21 50  1  0
 22 23  1  0
 22 51  1  0
 22 52  1  0
 23 21  1  0
 23 53  1  0
 23 54  1  0
 24 20  1  0
 24 55  1  0
 24 56  1  0
 25 24  1  0
 25 57  1  0
 25 58  1  0
 26 25  1  0
 26 59  1  0
 26 60  1  0
 27 22  1  0
 27 61  1  0
 27 62  1  0
 27 63  1  0
 28 14  2  0
 28 64  1  0
 29 15  2  0
 29 28  1  0
 29 65  1  0
M  END
> <Name>
CHEMBL198170

> <Clean Energy>
27.2092

> <chembl_id>
CHEMBL198170

> <chembl_pref_name>
None

> <efficacy>
0.34

> <Forcefield>
MMFF

> <ForcefieldBase>
MMFF

> <ForcefieldFFML>
<?xml version="1.0" encoding="UTF-8"?>
<!DOCTYPE ffml SYSTEM "Ffml.dtd">
<ffml version="1.0">
<forcefield name="MMFF" derivedFrom="MMFF" base="MMFF">
<atomTypes>
<atomType
name="C100"
element="C"
mass="12.011"
annotation=""/>
<atomType
name="O101"
element="O"
mass="16"
annotation=""/>
<atomType
name="H102"
element="H"
mass="1.008"
annotation=""/>
</atomTypes>
<parameters>
</parameters>
</forcefield>
</ffml>

> <Initial Potential Energy>
140.15429

> <Initial RMS Gradient>
29.15215

> <Minimization Criteria>
STEEPD> Minimization exiting with gradient tolerance ( 3.0000000) satisfied.

> <CHARMm Energy>
22.35995

> <Potential Energy>
22.35995

> <RMS Gradient>
0.04973

> <Bond Energy>
5.33762

> <Angle Energy>
8.13757

> <STRBend>
-0.09936

> <Dihedral Energy>
-12.42647

> <OOPLane>
0.04267

> <Van der Waals Energy>
54.14878

> <Electrostatic Energy>
-32.78086

> <Hydrogen Bond Energy>
0

> <Solvation Free Energy>
0

> <HasGasteigerCharges>
true

> <REMARK99>
REMARK  99  MacroMolecule created from Mol2 file
REMARK  99  CHEMBL198170
REMARK  99  PROTEIN
REMARK  99  GASTEIGER
REMARK  99
REMARK  99

$$$$
CHEMBL2312713
  SciTegic05292516403D

 45 47  0  0  0  0            999 V2000
   14.6327   -8.0901   -0.2149 C   0  0
   14.7180   -9.4623   -0.4425 C   0  0
   15.9709  -10.0751   -0.5399 C   0  0
   17.1361   -9.2927   -0.3806 C   0  0
   17.0762   -7.9038   -0.1461 C   0  0
   15.7973   -7.3228   -0.0716 C   0  0
   18.3012   -7.0824    0.0271 C   0  0
   19.3778   -7.1507   -0.8735 C   0  0
   20.5356   -6.3602   -0.7136 C   0  0
   20.6551   -5.4898    0.3664 C   0  0
   19.5870   -5.3989    1.2616 C   0  0
   18.4330   -6.1843    1.0986 C   0  0
   21.7152   -4.6679    0.6461 O   0  0
   23.0235   -4.9862    0.1212 C   0  0  1  0  0  0
   23.8738   -3.7022    0.1822 C   0  0
   23.2080   -2.6256    0.6698 O   0  0
   25.0454   -3.6270   -0.1682 O   0  0
   23.7267   -6.0438    0.9923 C   0  0
   23.5158   -7.4591    0.5037 C   0  0
   22.6392   -8.3260    1.1691 C   0  0
   22.4390   -9.6255    0.7006 C   0  0
   23.1194  -10.0737   -0.4300 C   0  0
   24.0013   -9.2232   -1.0936 C   0  0
   24.1981   -7.9216   -0.6306 C   0  0
   16.0660  -11.5601   -0.7477 C   0  0
   13.6578   -7.6121   -0.1468 H   0  0
   13.8027  -10.0488   -0.5435 H   0  0
   18.1084   -9.7816   -0.4262 H   0  0
   15.6948   -6.2518    0.0934 H   0  0
   19.3235   -7.8190   -1.7318 H   0  0
   21.3167   -6.4642   -1.4593 H   0  0
   19.6465   -4.7209    2.1098 H   0  0
   17.6352   -6.0936    1.8337 H   0  0
   22.9705   -5.2405   -0.9427 H   0  0
   22.2854   -2.8717    0.8952 H   0  0
   24.8116   -5.8800    1.0278 H   0  0
   23.3805   -5.9620    2.0311 H   0  0
   22.0947   -7.9927    2.0502 H   0  0
   21.7516  -10.2881    1.2201 H   0  0
   22.9676  -11.0879   -0.7894 H   0  0
   24.5461   -9.5757   -1.9664 H   0  0
   24.8992   -7.2742   -1.1548 H   0  0
   16.9931  -11.8218   -1.2682 H   0  0
   15.2349  -11.9220   -1.3620 H   0  0
   16.0453  -12.0743    0.2180 H   0  0
  1  2  2  0
  1 26  1  0
  2  3  1  0
  2 27  1  0
  3  4  2  0
  3 25  1  0
  4  5  1  0
  4 28  1  0
  5  6  2  0
  5  7  1  0
  6  1  1  0
  6 29  1  0
  7  8  2  0
  8  9  1  0
  8 30  1  0
  9 10  2  0
  9 31  1  0
 10 11  1  0
 10 13  1  0
 11 12  2  0
 11 32  1  0
 12  7  1  0
 12 33  1  0
 13 14  1  0
 14 15  1  0
 14 18  1  0
 14 34  1  0
 15 16  1  0
 15 17  2  0
 16 35  1  0
 18 19  1  0
 18 36  1  0
 18 37  1  0
 19 20  2  0
 20 21  1  0
 20 38  1  0
 21 22  2  0
 21 39  1  0
 22 23  1  0
 22 40  1  0
 23 24  2  0
 23 41  1  0
 24 19  1  0
 24 42  1  0
 25 43  1  0
 25 44  1  0
 25 45  1  0
M  END
> <Name>
CHEMBL2312713

> <Clean Energy>
12.424

> <chembl_id>
CHEMBL2312713

> <chembl_pref_name>
None

> <efficacy>
0.43

> <Forcefield>
MMFF

> <ForcefieldBase>
MMFF

> <ForcefieldFFML>
<?xml version="1.0" encoding="UTF-8"?>
<!DOCTYPE ffml SYSTEM "Ffml.dtd">
<ffml version="1.0">
<forcefield name="MMFF" derivedFrom="MMFF" base="MMFF">
<atomTypes>
<atomType
name="C100"
element="C"
mass="12.011"
annotation=""/>
<atomType
name="O101"
element="O"
mass="16"
annotation=""/>
<atomType
name="H102"
element="H"
mass="1.008"
annotation=""/>
</atomTypes>
<parameters>
</parameters>
</forcefield>
</ffml>

> <Initial Potential Energy>
159.58082

> <Initial RMS Gradient>
32.25487

> <Minimization Criteria>
CONJUG> Minimization exiting with gradient tolerance ( 0.0100000) satisfied.

> <CHARMm Energy>
70.80782

> <Potential Energy>
70.80782

> <RMS Gradient>
0.00992

> <Bond Energy>
7.73806

> <Angle Energy>
11.32453

> <STRBend>
-0.04884

> <Dihedral Energy>
5.07765

> <OOPLane>
0.02617

> <Van der Waals Energy>
53.19595

> <Electrostatic Energy>
-6.50572

> <Hydrogen Bond Energy>
0

> <Solvation Free Energy>
0

> <HasGasteigerCharges>
true

> <REMARK99>
REMARK  99  MacroMolecule created from Mol2 file
REMARK  99  CHEMBL2312713
REMARK  99  PROTEIN
REMARK  99  GASTEIGER
REMARK  99
REMARK  99

$$$$
CHEMBL583759
  SciTegic05292516403D

 47 49  0  0  0  0            999 V2000
   -2.0591  -18.2646    0.1867 C   0  0
   -0.9265  -18.7976   -0.4404 C   0  0
    0.3633  -18.3510   -0.1328 C   0  0
    0.5387  -17.3511    0.8147 C   0  0
   -0.5781  -16.8210    1.4600 C   0  0
   -1.8628  -17.2734    1.1494 C   0  0
    1.7210  -16.8024    1.2084 O   0  0
    2.9346  -17.1874    0.5320 C   0  0  1  0  0  0
    3.8108  -15.9314    0.5525 C   0  0
    3.6155  -18.3238    1.3079 C   0  0
    4.2553  -19.3554    0.4064 C   0  0
    5.5033  -19.1197   -0.1835 C   0  0
    6.0737  -20.0716   -1.0296 C   0  0
    5.4164  -21.2722   -1.2885 C   0  0
    4.1776  -21.5194   -0.7035 C   0  0
    3.6010  -20.5670    0.1404 C   0  0
    3.1310  -14.8061    0.8980 O   0  0
    5.0000  -15.8999    0.2707 O   0  0
   -3.2981  -18.7569   -0.1511 N   0  0
   -4.5409  -18.3385    0.4633 C   0  0
   -5.6592  -19.1863   -0.0897 C   0  0
   -6.4830  -18.7018   -1.1131 C   0  0
   -7.4682  -19.5191   -1.6599 C   0  0
   -7.6291  -20.8241   -1.1951 C   0  0
   -6.8065  -21.3186   -0.1845 C   0  0
   -5.8220  -20.5040    0.3647 C   0  0
   -1.0407  -19.5813   -1.1864 H   0  0
    1.1910  -18.8158   -0.6561 H   0  0
   -0.4568  -16.0472    2.2145 H   0  0
   -2.7036  -16.8287    1.6750 H   0  0
    2.7580  -17.4009   -0.5281 H   0  0
    4.3802  -17.9376    1.9949 H   0  0
    2.8877  -18.8299    1.9560 H   0  0
    6.0547  -18.2000    0.0112 H   0  0
    7.0429  -19.8764   -1.4816 H   0  0
    5.8825  -22.0121   -1.9372 H   0  0
    3.6569  -22.4533   -0.8998 H   0  0
    2.6363  -20.7837    0.5945 H   0  0
    2.1958  -15.0460    1.0938 H   0  0
   -3.3709  -19.4265   -0.9084 H   0  0
   -4.5059  -18.4661    1.5524 H   0  0
   -4.7349  -17.2784    0.2607 H   0  0
   -6.3474  -17.6930   -1.4962 H   0  0
   -8.1149  -19.1448   -2.4506 H   0  0
   -8.3988  -21.4594   -1.6257 H   0  0
   -6.9342  -22.3402    0.1661 H   0  0
   -5.1525  -20.8949    1.1299 H   0  0
  1  2  2  0
  1 19  1  0
  2  3  1  0
  2 27  1  0
  3  4  2  0
  3 28  1  0
  4  5  1  0
  4  7  1  0
  5  6  2  0
  5 29  1  0
  6  1  1  0
  6 30  1  0
  7  8  1  0
  8  9  1  0
  8 10  1  0
  8 31  1  0
  9 17  1  0
  9 18  2  0
 10 11  1  0
 10 32  1  0
 10 33  1  0
 11 12  2  0
 12 13  1  0
 12 34  1  0
 13 14  2  0
 13 35  1  0
 14 15  1  0
 14 36  1  0
 15 16  2  0
 15 37  1  0
 16 11  1  0
 16 38  1  0
 17 39  1  0
 19 20  1  0
 19 40  1  0
 20 41  1  0
 20 42  1  0
 21 20  1  0
 21 22  2  0
 22 23  1  0
 22 43  1  0
 23 24  2  0
 23 44  1  0
 24 25  1  0
 24 45  1  0
 25 26  2  0
 25 46  1  0
 26 21  1  0
 26 47  1  0
M  END
> <Name>
CHEMBL583759

> <Clean Energy>
11.2379

> <chembl_id>
CHEMBL583759

> <chembl_pref_name>
None

> <efficacy>
0.27

> <Forcefield>
MMFF

> <ForcefieldBase>
MMFF

> <ForcefieldFFML>
<?xml version="1.0" encoding="UTF-8"?>
<!DOCTYPE ffml SYSTEM "Ffml.dtd">
<ffml version="1.0">
<forcefield name="MMFF" derivedFrom="MMFF" base="MMFF">
<atomTypes>
<atomType
name="C100"
element="C"
mass="12.011"
annotation=""/>
<atomType
name="O101"
element="O"
mass="16"
annotation=""/>
<atomType
name="N102"
element="N"
mass="14.007"
annotation=""/>
<atomType
name="H103"
element="H"
mass="1.008"
annotation=""/>
</atomTypes>
<parameters>
</parameters>
</forcefield>
</ffml>

> <Initial Potential Energy>
142.09469

> <Initial RMS Gradient>
30.79805

> <Minimization Criteria>
STEEPD> Minimization exiting with gradient tolerance ( 3.0000000) satisfied.

> <CHARMm Energy>
53.59791

> <Potential Energy>
53.59791

> <RMS Gradient>
0.014

> <Bond Energy>
5.18881

> <Angle Energy>
16.67627

> <STRBend>
-0.9325

> <Dihedral Energy>
4.9402

> <OOPLane>
0.06476

> <Van der Waals Energy>
58.12123

> <Electrostatic Energy>
-30.46087

> <Hydrogen Bond Energy>
0

> <Solvation Free Energy>
0

> <HasGasteigerCharges>
true

> <REMARK99>
REMARK  99  MacroMolecule created from Mol2 file
REMARK  99  CHEMBL583759
REMARK  99  PROTEIN
REMARK  99  GASTEIGER
REMARK  99
REMARK  99

$$$$
CHEMBL426632
  SciTegic05292516403D

 38 40  0  0  0  0            999 V2000
   12.1684  -10.5995   -0.8564 C   0  0
   11.2044  -11.7474   -0.5289 C   0  0  1  0  0  0
    9.9195  -11.3555   -1.0286 O   0  0
    8.7912  -11.7473   -0.3701 C   0  0
    6.3771  -11.4023   -0.2369 C   0  0
    7.6262  -11.1083   -0.8043 C   0  0
   11.6403  -13.0264   -1.2562 C   0  0
   11.9485   -9.6994   -1.6557 O   0  0
    6.2977  -12.3668    0.7904 C   0  0
    7.4711  -13.0098    1.2142 C   0  0
   13.3315  -10.6356   -0.1592 O   0  0
    8.7088  -12.7048    0.6360 C   0  0
   12.8325  -13.7000   -0.6218 C   0  0
    5.2076  -10.7577   -0.6698 C   0  0
    5.0482  -12.6607    1.3597 C   0  0
   12.6978  -14.4115    0.5774 C   0  0
   14.0998  -13.5957   -1.2125 C   0  0
    3.9732  -11.0600   -0.0943 C   0  0
    3.8939  -12.0100    0.9195 C   0  0
   15.2134  -14.1787   -0.6068 C   0  0
   13.8131  -14.9952    1.1801 C   0  0
   15.0705  -14.8761    0.5905 C   0  0
   11.1890  -11.8368    0.5639 H   0  0
    7.7031  -10.3657   -1.5970 H   0  0
   10.8149  -13.7494   -1.2881 H   0  0
   11.8521  -12.8034   -2.3107 H   0  0
    7.4279  -13.7609    2.0001 H   0  0
   13.4744  -11.4191    0.4086 H   0  0
    9.5771  -13.2454    0.9914 H   0  0
    5.2546  -10.0136   -1.4618 H   0  0
    4.9631  -13.4005    2.1524 H   0  0
   11.7247  -14.5294    1.0485 H   0  0
   14.2316  -13.0521   -2.1473 H   0  0
    3.0765  -10.5534   -0.4391 H   0  0
    2.9342  -12.2467    1.3688 H   0  0
   16.1919  -14.0907   -1.0724 H   0  0
   13.7010  -15.5517    2.1077 H   0  0
   15.9375  -15.3347    1.0589 H   0  0
  2  1  1  0
  2 23  1  0
  3  2  1  0
  4  3  1  0
  5  6  1  0
  6  4  2  0
  6 24  1  0
  7  2  1  0
  7 25  1  0
  7 26  1  0
  8  1  2  0
  9  5  1  0
  9 10  1  0
 10 12  2  0
 10 27  1  0
 11  1  1  0
 11 28  1  0
 12  4  1  0
 12 29  1  0
 13  7  1  0
 14  5  2  0
 14 30  1  0
 15  9  2  0
 15 31  1  0
 16 13  1  0
 16 32  1  0
 17 13  2  0
 17 33  1  0
 18 14  1  0
 18 34  1  0
 19 15  1  0
 19 18  2  0
 19 35  1  0
 20 17  1  0
 20 36  1  0
 21 16  2  0
 21 22  1  0
 21 37  1  0
 22 20  2  0
 22 38  1  0
M  END
> <Name>
CHEMBL426632

> <Clean Energy>
18.0501

> <chembl_id>
CHEMBL426632

> <chembl_pref_name>
None

> <efficacy>
0.424

> <Forcefield>
MMFF

> <ForcefieldBase>
MMFF

> <ForcefieldFFML>
<?xml version="1.0" encoding="UTF-8"?>
<!DOCTYPE ffml SYSTEM "Ffml.dtd">
<ffml version="1.0">
<forcefield name="MMFF" derivedFrom="MMFF" base="MMFF">
<atomTypes>
<atomType
name="C100"
element="C"
mass="12.011"
annotation=""/>
<atomType
name="O101"
element="O"
mass="16"
annotation=""/>
<atomType
name="H102"
element="H"
mass="1.008"
annotation=""/>
</atomTypes>
<parameters>
</parameters>
</forcefield>
</ffml>

> <Initial Potential Energy>
129.58524

> <Initial RMS Gradient>
33.0506

> <Minimization Criteria>
STEEPD> Minimization exiting with gradient tolerance ( 3.0000000) satisfied.

> <CHARMm Energy>
68.73837

> <Potential Energy>
68.73837

> <RMS Gradient>
0.02703

> <Bond Energy>
5.25054

> <Angle Energy>
10.78918

> <STRBend>
-0.2398

> <Dihedral Energy>
-1.03677

> <OOPLane>
0.01309

> <Van der Waals Energy>
49.2422

> <Electrostatic Energy>
4.71993

> <Hydrogen Bond Energy>
0

> <Solvation Free Energy>
0

> <HasGasteigerCharges>
true

> <REMARK99>
REMARK  99  MacroMolecule created from Mol2 file
REMARK  99  CHEMBL426632
REMARK  99  PROTEIN
REMARK  99  GASTEIGER
REMARK  99
REMARK  99

$$$$
CHEMBL4286347
  SciTegic05292516403D

 75 79  0  0  0  0            999 V2000
   16.3902  -20.4564   -1.9240 O   0  0
   15.8366  -20.0726   -0.6447 S   0  0
   16.2359  -20.6970    0.5952 O   0  0
    3.8840  -16.9431    1.2235 C   0  0
    3.6932  -18.0633    0.4170 C   0  0
    4.8096  -18.7522   -0.0971 C   0  0
    5.1745  -16.4954    1.5383 C   0  0
    6.2724  -17.1959    1.0188 C   0  0
    6.1228  -18.3196    0.2025 C   0  0
    7.4395  -18.7857   -0.1607 C   0  0
    8.3306  -17.9228    0.4576 C   0  0
    7.6252  -16.9856    1.1618 N   0  0
    8.2239  -15.9240    1.9399 C   0  0
    2.4175  -18.5576    0.0683 N   0  0
    1.1772  -18.0705    0.4550 C   0  0
    0.1547  -18.7946   -0.1344 N   0  0
    0.9497  -17.1381    1.2154 O   0  0
   -1.2496  -18.4987    0.1165 C   0  0
    7.7154  -19.9607   -1.0617 C   0  0
    9.1838  -20.3339   -0.9806 C   0  0
    9.6538  -21.3030   -0.0670 C   0  0
   11.0230  -21.5917   -0.0058 C   0  0
   11.9237  -20.9104   -0.8350 C   0  0
   11.4657  -19.9751   -1.7664 C   0  0
   10.1022  -19.6936   -1.8391 C   0  0
    8.6987  -21.8989    0.7164 O   0  0
    9.1297  -22.9038    1.6290 C   0  0
   13.3688  -21.1761   -0.6646 C   0  0
   13.7740  -22.2989   -0.4216 O   0  0
   14.1765  -20.0347   -0.7776 N   0  0
   16.1657  -18.3311   -0.4482 C   0  0
   16.0282  -17.7578    0.8199 C   0  0
   16.2712  -16.3963    0.9757 C   0  0
   16.6583  -15.6139   -0.1115 C   0  0
   16.8062  -16.2040   -1.3669 C   0  0
   16.5642  -17.5644   -1.5467 C   0  0
   -1.7515  -17.4143   -0.8451 C   0  0
   -3.2410  -17.1380   -0.6563 C   0  0
   -4.0701  -18.4136   -0.7725 C   0  0
   -3.5761  -19.4947    0.1841 C   0  0
   -2.0882  -19.7757   -0.0076 C   0  0
   16.0808  -15.6719    2.5233 Cl  0  0
   17.2820  -15.2381   -2.7089 Cl  0  0
    3.0410  -16.3861    1.6318 H   0  0
    4.6579  -19.6231   -0.7282 H   0  0
    5.3069  -15.6252    2.1729 H   0  0
    9.4132  -17.9056    0.4561 H   0  0
    7.8917  -14.9662    1.5311 H   0  0
    9.3131  -15.9931    1.8800 H   0  0
    7.9037  -16.0341    2.9792 H   0  0
    2.3809  -19.3786   -0.5125 H   0  0
    0.3826  -19.4479   -0.8669 H   0  0
   -1.3387  -18.1226    1.1435 H   0  0
    7.0804  -20.8123   -0.7926 H   0  0
    7.4570  -19.6970   -2.0949 H   0  0
   11.4263  -22.3239    0.6906 H   0  0
   12.1537  -19.4831   -2.4520 H   0  0
    9.7501  -18.9585   -2.5615 H   0  0
    9.8086  -22.4869    2.3801 H   0  0
    9.5885  -23.7464    1.1011 H   0  0
    8.2450  -23.2799    2.1520 H   0  0
   13.7489  -19.1158   -0.7994 H   0  0
   15.7378  -18.3660    1.6750 H   0  0
   16.8455  -14.5510    0.0195 H   0  0
   16.6830  -18.0177   -2.5286 H   0  0
   -1.1872  -16.4857   -0.6961 H   0  0
   -1.5680  -17.7236   -1.8829 H   0  0
   -3.4053  -16.6844    0.3286 H   0  0
   -3.5785  -16.4107   -1.4032 H   0  0
   -5.1226  -18.1903   -0.5647 H   0  0
   -4.0201  -18.7881   -1.8027 H   0  0
   -3.7574  -19.1785    1.2184 H   0  0
   -4.1485  -20.4158    0.0264 H   0  0
   -1.9301  -20.2335   -0.9935 H   0  0
   -1.7563  -20.5144    0.7325 H   0  0
  2  1  2  0
  2 31  1  0
  3  2  2  0
  4  5  2  0
  4 44  1  0
  5  6  1  0
  5 14  1  0
  6  9  2  0
  6 45  1  0
  7  4  1  0
  7 46  1  0
  8  7  2  0
  8  9  1  0
  9 10  1  0
 10 11  2  0
 10 19  1  0
 11 12  1  0
 11 47  1  0
 12  8  1  0
 12 13  1  0
 13 48  1  0
 13 49  1  0
 13 50  1  0
 14 15  1  0
 14 51  1  0
 15 16  1  0
 15 17  2  0
 16 18  1  0
 16 52  1  0
 18 37  1  0
 18 41  1  0
 18 53  1  0
 19 20  1  0
 19 54  1  0
 19 55  1  0
 20 21  2  0
 21 22  1  0
 21 26  1  0
 22 23  2  0
 22 56  1  0
 23 24  1  0
 23 28  1  0
 24 25  2  0
 24 57  1  0
 25 20  1  0
 25 58  1  0
 26 27  1  0
 27 59  1  0
 27 60  1  0
 27 61  1  0
 28 29  2  0
 28 30  1  0
 30  2  1  0
 30 62  1  0
 31 32  2  0
 32 33  1  0
 32 63  1  0
 33 34  2  0
 33 42  1  0
 34 35  1  0
 34 64  1  0
 35 36  2  0
 35 43  1  0
 36 31  1  0
 36 65  1  0
 37 38  1  0
 37 66  1  0
 37 67  1  0
 38 39  1  0
 38 68  1  0
 38 69  1  0
 39 40  1  0
 39 70  1  0
 39 71  1  0
 40 41  1  0
 40 72  1  0
 40 73  1  0
 41 74  1  0
 41 75  1  0
M  END
> <Name>
CHEMBL4286347

> <Clean Energy>
57.115299

> <chembl_id>
CHEMBL4286347

> <chembl_pref_name>
None

> <efficacy>
0.275403609

> <Forcefield>
MMFF

> <ForcefieldBase>
MMFF

> <ForcefieldFFML>
<?xml version="1.0" encoding="UTF-8"?>
<!DOCTYPE ffml SYSTEM "Ffml.dtd">
<ffml version="1.0">
<forcefield name="MMFF" derivedFrom="MMFF" base="MMFF">
<atomTypes>
<atomType
name="O100"
element="O"
mass="16"
annotation=""/>
<atomType
name="S101"
element="S"
mass="32.066"
annotation=""/>
<atomType
name="C102"
element="C"
mass="12.011"
annotation=""/>
<atomType
name="N103"
element="N"
mass="14.007"
annotation=""/>
<atomType
name="Cl104"
element="Cl"
mass="35.453"
annotation=""/>
<atomType
name="H105"
element="H"
mass="1.008"
annotation=""/>
</atomTypes>
<parameters>
</parameters>
</forcefield>
</ffml>

> <Initial Potential Energy>
87.00976

> <Initial RMS Gradient>
43.67264

> <Minimization Criteria>
STEEPD> Minimization exiting with gradient tolerance ( 3.0000000) satisfied.

> <CHARMm Energy>
-119.78478

> <Potential Energy>
-119.78478

> <RMS Gradient>
0.09063

> <Bond Energy>
8.46778

> <Angle Energy>
18.8965

> <STRBend>
-0.20676

> <Dihedral Energy>
-10.05587

> <OOPLane>
0.09956

> <Van der Waals Energy>
75.03419

> <Electrostatic Energy>
-212.02019

> <Hydrogen Bond Energy>
0

> <Solvation Free Energy>
0

> <HasGasteigerCharges>
true

> <REMARK99>
REMARK  99  MacroMolecule created from Mol2 file
REMARK  99  CHEMBL4286347
REMARK  99  PROTEIN
REMARK  99  GASTEIGER
REMARK  99
REMARK  99

$$$$
CHEMBL522772
  SciTegic05292516403D

 57 60  0  0  0  0            999 V2000
   -4.2596  -17.9413   -0.2817 C   0  0
   -4.7192  -19.2325   -0.5181 C   0  0
   -3.9241  -20.3453   -0.2119 C   0  0
   -2.9780  -17.7398    0.2420 C   0  0
   -2.1777  -18.8567    0.5394 C   0  0
   -2.6354  -20.1557    0.3244 C   0  0
   -1.6006  -21.0338    0.7340 C   0  0
   -0.5607  -20.2834    1.2611 C   0  0
   -0.8897  -18.9534    1.0449 N   0  0
    0.6976  -20.7054    1.9395 C   0  0
   -0.0364  -17.8010    1.3373 C   0  0
    0.9082  -17.4890    0.1968 C   0  0
    2.2975  -17.6232    0.3639 C   0  0
    3.1710  -17.3179   -0.6855 C   0  0
    2.6545  -16.9237   -1.9259 C   0  0
    1.2823  -16.7771   -2.1022 C   0  0
    0.4158  -17.0497   -1.0436 C   0  0
    4.5282  -17.4696   -0.5862 O   0  0
    5.1543  -16.9266    0.5875 C   0  0  2  0  0  0
    6.1500  -15.8513    0.1816 C   0  0
    5.8796  -18.0557    1.3026 C   0  0
    6.8016  -15.1954    0.9855 O   0  0
    6.2914  -15.6771   -1.1560 O   0  0
   -4.9457  -16.7851   -0.5283 O   0  0
   -6.3550  -16.8884   -0.6989 C   0  0
   -6.9310  -17.5802    0.3119 F   0  0
   -6.6660  -17.4838   -1.8724 F   0  0
   -6.8979  -15.6467   -0.7065 F   0  0
   -1.7101  -22.3835    0.6924 O   0  0
   -0.6503  -23.1972    0.3770 C   0  0
   -0.5985  -24.4211    1.0455 C   0  0
    0.4487  -25.3054    0.7921 C   0  0
    1.4315  -24.9702   -0.1399 C   0  0
    1.3577  -23.7707   -0.8446 C   0  0
    0.3067  -22.8842   -0.5933 C   0  0
    2.7235  -26.0609   -0.4462 Cl  0  0
    3.7009  -16.5977   -3.2602 Cl  0  0
   -5.7025  -19.4305   -0.9376 H   0  0
   -4.3144  -21.3491   -0.3810 H   0  0
   -2.6236  -16.7292    0.4175 H   0  0
    0.9144  -20.0779    2.8089 H   0  0
    1.5437  -20.6483    1.2483 H   0  0
    0.6276  -21.7292    2.3165 H   0  0
   -0.6700  -16.9328    1.5467 H   0  0
    0.5052  -18.0053    2.2659 H   0  0
    2.6881  -17.9903    1.3099 H   0  0
    0.8791  -16.4559   -3.0600 H   0  0
   -0.6528  -16.9299   -1.2087 H   0  0
    4.4322  -16.4399    1.2543 H   0  0
    6.3885  -17.6974    2.2028 H   0  0
    6.6293  -18.5154    0.6485 H   0  0
    5.1783  -18.8466    1.5880 H   0  0
    5.6465  -16.2569   -1.6283 H   0  0
   -1.3784  -24.6851    1.7585 H   0  0
    0.4800  -26.2601    1.3136 H   0  0
    2.1151  -23.5296   -1.5872 H   0  0
    0.2436  -21.9540   -1.1515 H   0  0
  1  2  2  0
  1 24  1  0
  2  3  1  0
  2 38  1  0
  3  6  2  0
  3 39  1  0
  4  1  1  0
  4 40  1  0
  5  4  2  0
  5  6  1  0
  6  7  1  0
  7  8  2  0
  7 29  1  0
  8  9  1  0
  8 10  1  0
  9  5  1  0
  9 11  1  0
 10 41  1  0
 10 42  1  0
 10 43  1  0
 11 12  1  0
 11 44  1  0
 11 45  1  0
 12 13  2  0
 13 14  1  0
 13 46  1  0
 14 15  2  0
 14 18  1  0
 15 16  1  0
 15 37  1  0
 16 17  2  0
 16 47  1  0
 17 12  1  0
 17 48  1  0
 18 19  1  0
 19 20  1  0
 19 21  1  0
 19 49  1  0
 20 22  2  0
 20 23  1  0
 21 50  1  0
 21 51  1  0
 21 52  1  0
 23 53  1  0
 24 25  1  0
 25 26  1  0
 25 27  1  0
 25 28  1  0
 29 30  1  0
 30 31  2  0
 31 32  1  0
 31 54  1  0
 32 33  2  0
 32 55  1  0
 33 34  1  0
 33 36  1  0
 34 35  2  0
 34 56  1  0
 35 30  1  0
 35 57  1  0
M  END
> <Name>
CHEMBL522772

> <Clean Energy>
104.167

> <chembl_id>
CHEMBL522772

> <chembl_pref_name>
None

> <efficacy>
0.2

> <Forcefield>
MMFF

> <ForcefieldBase>
MMFF

> <ForcefieldFFML>
<?xml version="1.0" encoding="UTF-8"?>
<!DOCTYPE ffml SYSTEM "Ffml.dtd">
<ffml version="1.0">
<forcefield name="MMFF" derivedFrom="MMFF" base="MMFF">
<atomTypes>
<atomType
name="C100"
element="C"
mass="12.011"
annotation=""/>
<atomType
name="N101"
element="N"
mass="14.007"
annotation=""/>
<atomType
name="O102"
element="O"
mass="16"
annotation=""/>
<atomType
name="F103"
element="F"
mass="18.998"
annotation=""/>
<atomType
name="Cl104"
element="Cl"
mass="35.453"
annotation=""/>
<atomType
name="H105"
element="H"
mass="1.008"
annotation=""/>
</atomTypes>
<parameters>
</parameters>
</forcefield>
</ffml>

> <Initial Potential Energy>
272.43601

> <Initial RMS Gradient>
32.87268

> <Minimization Criteria>
STEEPD> Minimization exiting with gradient tolerance ( 3.0000000) satisfied.

> <CHARMm Energy>
87.42982

> <Potential Energy>
87.42982

> <RMS Gradient>
0.04829

> <Bond Energy>
5.94055

> <Angle Energy>
22.33661

> <STRBend>
0.11648

> <Dihedral Energy>
9.73221

> <OOPLane>
0.13537

> <Van der Waals Energy>
64.38729

> <Electrostatic Energy>
-15.2187

> <Hydrogen Bond Energy>
0

> <Solvation Free Energy>
0

> <HasGasteigerCharges>
true

> <REMARK99>
REMARK  99  MacroMolecule created from Mol2 file
REMARK  99  CHEMBL522772
REMARK  99  PROTEIN
REMARK  99  GASTEIGER
REMARK  99
REMARK  99

$$$$
CHEMBL295416
  SciTegic05292516403D

 35 36  0  0  0  0            999 V2000
   -0.9019    0.7408    0.7220 N   0  0
   -2.3297   -0.9762   -0.0966 N   0  0
   -2.1052    0.1792    0.5339 C   0  0
    0.1857    0.1010    0.2531 C   0  0
   -1.2132   -1.5697   -0.5541 C   0  0
    1.3918    0.7681    0.4532 N   0  0
    0.0675   -1.0884   -0.4191 C   0  0
    2.7581    0.4451    0.3357 C   0  0
    3.6919    1.4611   -0.0135 C   0  0
   -3.5074    1.0369    1.1874 S   0  0
   -5.6425   -0.1236   -0.1226 C   0  0
    5.0754    1.1616   -0.0794 C   0  0
   -6.8489    0.0922   -0.1518 O   0  0
   -4.6089    0.9677   -0.2553 C   0  0
   -1.5087   -3.0418   -1.3864 Cl  0  0
   -5.1539   -1.3797   -0.0251 O   0  0
    3.2304   -0.8589    0.5405 C   0  0
    4.5905   -1.1584    0.4419 C   0  0
    3.2025    2.8683   -0.2715 C   0  0
    5.5041   -0.1548    0.1376 C   0  0
    6.1143    2.2078   -0.3954 C   0  0
    1.2158    1.6708    0.8831 H   0  0
    0.9127   -1.6039   -0.8499 H   0  0
   -4.0703    0.8535   -1.2011 H   0  0
   -5.1402    1.9243   -0.3021 H   0  0
   -4.1727   -1.4240   -0.0267 H   0  0
    2.5526   -1.6540    0.8360 H   0  0
    4.9481   -2.1700    0.6238 H   0  0
    3.8954    3.4393   -0.8959 H   0  0
    3.0717    3.3960    0.6784 H   0  0
    2.2526    2.8634   -0.8164 H   0  0
    6.5631   -0.4055    0.0809 H   0  0
    7.1293    1.8271   -0.2388 H   0  0
    5.9939    3.0771    0.2591 H   0  0
    6.0303    2.5183   -1.4416 H   0  0
  2  3  2  0
  2  5  1  0
  3  1  1  0
  4  1  2  0
  5  7  2  0
  6  4  1  0
  6 22  1  0
  7  4  1  0
  7 23  1  0
  8  6  1  0
  9  8  1  0
 10  3  1  0
 11 14  1  0
 12  9  2  0
 12 20  1  0
 13 11  2  0
 14 10  1  0
 14 24  1  0
 14 25  1  0
 15  5  1  0
 16 11  1  0
 16 26  1  0
 17  8  2  0
 17 27  1  0
 18 17  1  0
 18 28  1  0
 19  9  1  0
 19 29  1  0
 19 30  1  0
 19 31  1  0
 20 18  2  0
 20 32  1  0
 21 12  1  0
 21 33  1  0
 21 34  1  0
 21 35  1  0
M  END
> <Name>
CHEMBL295416

> <Clean Energy>
4.63975

> <chembl_id>
CHEMBL295416

> <chembl_pref_name>
PIRINIXIC ACID

> <efficacy>
0.421706236

> <Forcefield>
MMFF

> <ForcefieldBase>
MMFF

> <ForcefieldFFML>
<?xml version="1.0" encoding="UTF-8"?>
<!DOCTYPE ffml SYSTEM "Ffml.dtd">
<ffml version="1.0">
<forcefield name="MMFF" derivedFrom="MMFF" base="MMFF">
<atomTypes>
<atomType
name="N100"
element="N"
mass="14.007"
annotation=""/>
<atomType
name="C101"
element="C"
mass="12.011"
annotation=""/>
<atomType
name="S102"
element="S"
mass="32.066"
annotation=""/>
<atomType
name="O103"
element="O"
mass="16"
annotation=""/>
<atomType
name="Cl104"
element="Cl"
mass="35.453"
annotation=""/>
<atomType
name="H105"
element="H"
mass="1.008"
annotation=""/>
</atomTypes>
<parameters>
</parameters>
</forcefield>
</ffml>

> <Initial Potential Energy>
5.98125

> <Initial RMS Gradient>
40.22746

> <Minimization Criteria>
CONJUG> Minimization exiting with gradient tolerance ( 0.0100000) satisfied.

> <CHARMm Energy>
-86.45489

> <Potential Energy>
-86.45489

> <RMS Gradient>
0.00945

> <Bond Energy>
3.24569

> <Angle Energy>
12.19325

> <STRBend>
0.11332

> <Dihedral Energy>
9.58735

> <OOPLane>
0.17212

> <Van der Waals Energy>
37.68598

> <Electrostatic Energy>
-149.45259

> <Hydrogen Bond Energy>
0

> <Solvation Free Energy>
0

> <HasGasteigerCharges>
true

> <REMARK99>
REMARK  99  MacroMolecule created from Mol2 file
REMARK  99  CHEMBL295416
REMARK  99  PROTEIN
REMARK  99  GASTEIGER
REMARK  99
REMARK  99

$$$$
CHEMBL1729254
  SciTegic05292516403D

 62 63  0  0  0  0            999 V2000
   -0.5449   -2.6286    1.3303 O   0  0
    2.0135    0.7492   -0.7245 O   0  0
   -1.2299    3.2367   -1.5057 O   0  0
    0.9414    2.7969   -1.5960 O   0  0
   -0.4025    1.1294   -0.5556 C   0  0
    0.7592    0.3452   -0.3320 C   0  0
    0.7069   -0.9069    0.3159 C   0  0
   -1.6576    0.6344   -0.1120 C   0  0
   -0.5425   -1.3991    0.7236 C   0  0
   -1.6926   -0.6307    0.5132 C   0  0
   -0.3236    2.4666   -1.2452 C   0  0
    1.9746   -1.7211    0.5526 C   0  0
   -2.9444    1.4366   -0.2932 C   0  0
   -4.2518    0.8346    0.2606 C   0  0
    2.2459   -2.7440   -0.5254 C   0  0
   -5.5178    1.6545    0.1201 C   0  0
    3.3775   -3.4605   -0.6958 C   0  0
   -1.8000   -3.2353    1.6142 C   0  0
   -6.6978    1.1403    0.6888 C   0  0
   -5.5823    2.8850   -0.5471 C   0  0
    4.5892   -3.3822    0.2150 C   0  0
   -7.9040    1.8350    0.5977 C   0  0
   -6.7912    3.5813   -0.6387 C   0  0
    3.4746   -4.4607   -1.8204 C   0  0
   -7.9476    3.0558   -0.0672 C   0  0
    5.8214   -2.7792   -0.4728 C   0  0
    7.0087   -2.7180    0.4537 C   0  0
    8.1174   -3.4833    0.4317 C   0  0
    9.2356   -3.2484    1.4173 C   0  0
    8.3741   -4.6247   -0.5161 C   0  0
    1.9474    1.6174   -1.1723 H   0  0
    0.8286    3.6772   -2.0223 H   0  0
   -2.6432   -1.0224    0.8545 H   0  0
    2.8329   -1.0465    0.6546 H   0  0
    1.8918   -2.2312    1.5209 H   0  0
   -2.7978    2.4068    0.1989 H   0  0
   -3.0831    1.5987   -1.3695 H   0  0
   -4.4349   -0.1267   -0.2385 H   0  0
   -4.1177    0.6355    1.3319 H   0  0
    1.4235   -2.9035   -1.2217 H   0  0
   -1.6032   -4.2328    2.0194 H   0  0
   -2.3960   -3.3583    0.7041 H   0  0
   -2.3466   -2.6707    2.3764 H   0  0
   -6.6771    0.1853    1.2106 H   0  0
   -4.7010    3.3259   -1.0060 H   0  0
    4.3608   -2.8029    1.1175 H   0  0
    4.8216   -4.3956    0.5692 H   0  0
   -8.8087    1.4265    1.0433 H   0  0
   -6.8320    4.5361   -1.1576 H   0  0
    4.2310   -4.1517   -2.5478 H   0  0
    2.5272   -4.5701   -2.3594 H   0  0
    3.7450   -5.4471   -1.4309 H   0  0
   -8.8839    3.5993   -0.1403 H   0  0
    6.0651   -3.3325   -1.3847 H   0  0
    5.5943   -1.7562   -0.7995 H   0  0
    6.9412   -1.9313    1.2055 H   0  0
    9.3931   -4.1408    2.0319 H   0  0
    9.0248   -2.4123    2.0922 H   0  0
   10.1659   -3.0209    0.8863 H   0  0
    9.2195   -4.3886   -1.1705 H   0  0
    7.5160   -4.8644   -1.1477 H   0  0
    8.6169   -5.5324    0.0470 H   0  0
  1  9  1  0
  1 18  1  0
  2  6  1  0
  2 31  1  0
  3 11  2  0
  4 11  1  0
  4 32  1  0
  5  6  1  0
  5  8  2  0
  5 11  1  0
  6  7  2  0
  7  9  1  0
  7 12  1  0
  8 10  1  0
  8 13  1  0
  9 10  2  0
 10 33  1  0
 12 15  1  0
 12 34  1  0
 12 35  1  0
 13 14  1  0
 13 36  1  0
 13 37  1  0
 14 16  1  0
 14 38  1  0
 14 39  1  0
 15 17  2  0
 15 40  1  0
 16 19  2  0
 16 20  1  0
 17 21  1  0
 17 24  1  0
 18 41  1  0
 18 42  1  0
 18 43  1  0
 19 22  1  0
 19 44  1  0
 20 23  2  0
 20 45  1  0
 21 26  1  0
 21 46  1  0
 21 47  1  0
 22 25  2  0
 22 48  1  0
 23 25  1  0
 23 49  1  0
 24 50  1  0
 24 51  1  0
 24 52  1  0
 25 53  1  0
 26 27  1  0
 26 54  1  0
 26 55  1  0
 27 28  2  0
 27 56  1  0
 28 29  1  0
 28 30  1  0
 29 57  1  0
 29 58  1  0
 29 59  1  0
 30 60  1  0
 30 61  1  0
 30 62  1  0
M  END
> <Name>
CHEMBL1729254

> <Clean Energy>
2.20165

> <chembl_id>
CHEMBL1729254

> <chembl_pref_name>
None

> <efficacy>
0.25

> <Forcefield>
MMFF

> <ForcefieldBase>
MMFF

> <ForcefieldFFML>
<?xml version="1.0" encoding="UTF-8"?>
<!DOCTYPE ffml SYSTEM "Ffml.dtd">
<ffml version="1.0">
<forcefield name="MMFF" derivedFrom="MMFF" base="MMFF">
<atomTypes>
<atomType
name="O100"
element="O"
mass="16"
annotation=""/>
<atomType
name="C101"
element="C"
mass="12.011"
annotation=""/>
<atomType
name="H102"
element="H"
mass="1.008"
annotation=""/>
</atomTypes>
<parameters>
</parameters>
</forcefield>
</ffml>

> <Initial Potential Energy>
177.18622

> <Initial RMS Gradient>
24.59578

> <Minimization Criteria>
STEEPD> Minimization exiting with gradient tolerance ( 3.0000000) satisfied.

> <CHARMm Energy>
78.98527

> <Potential Energy>
78.98527

> <RMS Gradient>
0.15943

> <Bond Energy>
9.05743

> <Angle Energy>
21.21098

> <STRBend>
1.21256

> <Dihedral Energy>
-10.66731

> <OOPLane>
0.01498

> <Van der Waals Energy>
67.87493

> <Electrostatic Energy>
-9.71831

> <Hydrogen Bond Energy>
0

> <Solvation Free Energy>
0

> <HasGasteigerCharges>
true

> <REMARK99>
REMARK  99  MacroMolecule created from Mol2 file
REMARK  99  CHEMBL1729254
REMARK  99  PROTEIN
REMARK  99  GASTEIGER
REMARK  99
REMARK  99

$$$$
CHEMBL1945213
  SciTegic05292516403D

 60 64  0  0  0  0            999 V2000
    5.0537   -3.4682    0.1352 C   0  0
    4.7171   -4.7049   -0.2988 C   0  0
    5.7067   -5.7387   -0.5509 C   0  0
    6.5289   -3.1800    0.2759 C   0  0
    6.9165   -2.2552    0.9944 O   0  0
    3.9774   -2.4601    0.4229 C   0  0
    4.3617   -1.0377    0.7289 C   0  0
    2.7900   -2.7971    0.3834 O   0  0
    3.4238   -5.1487   -0.4824 O   0  0
    7.4888   -3.9889   -0.5982 C   0  0  1  0  0  0
    6.9991   -5.4070   -0.6791 C   0  0
    8.0623   -6.3109   -0.6690 O   0  0
    7.5599   -3.3330   -1.9871 C   0  0
    8.8778   -4.2444   -0.0833 C   0  0
    9.1939   -5.6093   -0.2672 C   0  0
   10.4818   -6.1293   -0.0580 C   0  0
   11.4621   -5.2149    0.4083 C   0  0
   11.1228   -3.8596    0.6296 C   0  0
    9.8393   -3.3791    0.3822 C   0  0
    9.6088   -2.0575    0.5992 O   0  0
   12.7320   -5.6965    0.6380 O   0  0
   13.7284   -4.7751    1.0649 C   0  0
   10.7771   -7.5794   -0.3793 C   0  0
    9.8877   -8.3378   -0.7518 O   0  0
   12.0863   -8.0136   -0.2605 N   0  0
   12.5107   -9.3625   -0.5928 C   0  0
   14.0156   -9.5117   -0.5534 C   0  0
   16.8176   -9.6256   -0.5625 C   0  0
   16.1631   -8.5962   -1.2201 C   0  0
   14.7821   -8.5402   -1.2299 C   0  0
   16.0899  -10.6395    0.0802 C   0  0
   14.6697  -10.5993    0.0930 C   0  0
   13.9967  -11.6578    0.7510 C   0  0
   14.6912  -12.7044    1.3646 C   0  0
   16.0785  -12.7233    1.3432 C   0  0
   16.7727  -11.6971    0.7063 C   0  0
   16.8484   -7.6122   -1.8685 O   0  0
    5.3999   -6.7804   -0.5461 H   0  0
    3.4720   -0.4047    0.6549 H   0  0
    5.0865   -0.6707   -0.0021 H   0  0
    4.7561   -0.9653    1.7449 H   0  0
    2.7762   -4.4357   -0.2509 H   0  0
    8.1818   -3.9077   -2.6845 H   0  0
    7.9871   -2.3249   -1.9206 H   0  0
    6.5669   -3.2303   -2.4396 H   0  0
   11.8488   -3.1359    0.9898 H   0  0
    8.6661   -1.9311    0.8429 H   0  0
   14.6672   -5.3275    1.1717 H   0  0
   13.4823   -4.3505    2.0436 H   0  0
   13.8906   -3.9930    0.3162 H   0  0
   12.7653   -7.3628    0.1194 H   0  0
   11.9955  -10.0093    0.1194 H   0  0
   12.1406   -9.6123   -1.5938 H   0  0
   17.9015   -9.6464   -0.5474 H   0  0
   14.2893   -7.7289   -1.7632 H   0  0
   12.9114  -11.6991    0.7934 H   0  0
   14.1436  -13.5044    1.8561 H   0  0
   16.6202  -13.5364    1.8184 H   0  0
   17.8600  -11.7342    0.6948 H   0  0
   17.7886   -7.8660   -1.9079 H   0  0
  1  2  2  0
  1  4  1  0
  1  6  1  0
  2  3  1  0
  2  9  1  0
  3 11  2  0
  3 38  1  0
  4  5  2  0
  6  7  1  0
  6  8  2  0
  7 39  1  0
  7 40  1  0
  7 41  1  0
  9 42  1  0
 10  4  1  0
 10 11  1  0
 10 13  1  0
 11 12  1  0
 12 15  1  0
 13 43  1  0
 13 44  1  0
 13 45  1  0
 14 10  1  0
 14 15  2  0
 15 16  1  0
 16 17  2  0
 16 23  1  0
 17 18  1  0
 17 21  1  0
 18 19  2  0
 18 46  1  0
 19 14  1  0
 19 20  1  0
 20 47  1  0
 21 22  1  0
 22 48  1  0
 22 49  1  0
 22 50  1  0
 23 24  2  0
 23 25  1  0
 25 26  1  0
 25 51  1  0
 26 27  1  0
 26 52  1  0
 26 53  1  0
 27 32  2  0
 28 29  1  0
 28 54  1  0
 29 30  2  0
 29 37  1  0
 30 27  1  0
 30 55  1  0
 31 28  2  0
 31 32  1  0
 32 33  1  0
 33 34  2  0
 33 56  1  0
 34 35  1  0
 34 57  1  0
 35 36  2  0
 35 58  1  0
 36 31  1  0
 36 59  1  0
 37 60  1  0
M  END
> <Name>
CHEMBL1945213

> <Clean Energy>
58.811901

> <chembl_id>
CHEMBL1945213

> <chembl_pref_name>
None

> <efficacy>
0.29

> <Forcefield>
MMFF

> <ForcefieldBase>
MMFF

> <ForcefieldFFML>
<?xml version="1.0" encoding="UTF-8"?>
<!DOCTYPE ffml SYSTEM "Ffml.dtd">
<ffml version="1.0">
<forcefield name="MMFF" derivedFrom="MMFF" base="MMFF">
<atomTypes>
<atomType
name="C100"
element="C"
mass="12.011"
annotation=""/>
<atomType
name="O101"
element="O"
mass="16"
annotation=""/>
<atomType
name="N102"
element="N"
mass="14.007"
annotation=""/>
<atomType
name="H103"
element="H"
mass="1.008"
annotation=""/>
</atomTypes>
<parameters>
</parameters>
</forcefield>
</ffml>

> <Initial Potential Energy>
143.38424

> <Initial RMS Gradient>
29.40616

> <Minimization Criteria>
STEEPD> Minimization exiting with gradient tolerance ( 3.0000000) satisfied.

> <CHARMm Energy>
48.64743

> <Potential Energy>
48.64743

> <RMS Gradient>
0.13537

> <Bond Energy>
11.27585

> <Angle Energy>
30.72647

> <STRBend>
0.66388

> <Dihedral Energy>
5.44126

> <OOPLane>
0.48183

> <Van der Waals Energy>
82.15334

> <Electrostatic Energy>
-82.0952

> <Hydrogen Bond Energy>
0

> <Solvation Free Energy>
0

> <HasGasteigerCharges>
true

> <REMARK99>
REMARK  99  MacroMolecule created from Mol2 file
REMARK  99  CHEMBL1945213
REMARK  99  PROTEIN
REMARK  99  GASTEIGER
REMARK  99
REMARK  99

$$$$
CHEMBL5172173
  SciTegic05292516403D

 58 59  0  0  0  0            999 V2000
    7.7876    0.2085    0.6108 O   0  0
    6.7445   -0.2489    0.1677 C   0  0
    6.3834   -1.5433    0.0917 O   0  0
    7.2659   -2.5898    0.5758 C   0  0
    8.5766   -2.6211   -0.2180 C   0  0
    7.5122   -2.4549    2.0824 C   0  0
    6.5020   -3.8970    0.3168 C   0  0
    5.7818    0.5316   -0.3762 N   0  0
    5.7199    1.9925   -0.2328 C   0  0  1  0  0  0
    6.8053    2.7816   -0.9932 C   0  0
    8.0406    2.2380   -0.9911 O   0  0
    6.6122    3.8886   -1.4836 O   0  0
    4.3489    2.5249   -0.6952 C   0  0
    2.9690    1.6441    0.1226 S   0  0
    1.5767    2.4475   -0.7389 C   0  0
    0.2807    1.7349   -0.4550 C   0  0
   -0.0471    0.5658   -1.1545 C   0  0
   -1.2340   -0.1133   -0.8783 C   0  0
   -2.1196    0.3686    0.0920 C   0  0
   -1.7894    1.5279    0.8010 C   0  0
   -0.5955    2.2046    0.5321 C   0  0
   -3.3428   -0.3923    0.3542 C   0  0
   -4.5682    0.1534    0.3565 C   0  0
   -5.7430   -0.7522    0.4843 C   0  0
   -7.0854   -0.1446    0.3467 C   0  0
   -8.0026   -0.7815   -0.4971 C   0  0
   -9.2706   -0.2357   -0.6817 C   0  0
   -9.6289    0.9326   -0.0090 C   0  0
   -8.7283    1.5538    0.8564 C   0  0
   -7.4515    1.0180    1.0353 C   0  0
   -5.6227   -1.9646    0.6178 O   0  0
    9.1740   -3.5040    0.0339 H   0  0
    9.1949   -1.7402   -0.0206 H   0  0
    8.3783   -2.6303   -1.2957 H   0  0
    8.0433   -3.3270    2.4790 H   0  0
    6.5651   -2.3480    2.6231 H   0  0
    8.1108   -1.5705    2.3208 H   0  0
    7.0717   -4.7731    0.6439 H   0  0
    6.2742   -4.0104   -0.7496 H   0  0
    5.5385   -3.8954    0.8399 H   0  0
    4.9292    0.0380   -0.6197 H   0  0
    5.8669    2.2194    0.8312 H   0  0
    8.1397    1.4556   -0.3985 H   0  0
    4.2554    3.5934   -0.4734 H   0  0
    4.2432    2.3886   -1.7778 H   0  0
    1.5163    3.4943   -0.4218 H   0  0
    1.7601    2.4442   -1.8193 H   0  0
    0.6301    0.1688   -1.9086 H   0  0
   -1.4623   -1.0228   -1.4300 H   0  0
   -2.4422    1.9056    1.5829 H   0  0
   -0.3453    3.0935    1.1083 H   0  0
   -3.2121   -1.4664    0.4782 H   0  0
   -4.7355    1.2079    0.1807 H   0  0
   -7.7184   -1.6948   -1.0159 H   0  0
   -9.9833   -0.7241   -1.3422 H   0  0
  -10.6223    1.3524   -0.1486 H   0  0
   -9.0334    2.4481    1.3960 H   0  0
   -6.7648    1.4993    1.7255 H   0  0
  2  1  2  0
  2  3  1  0
  3  4  1  0
  4  5  1  0
  4  6  1  0
  4  7  1  0
  5 32  1  0
  5 33  1  0
  5 34  1  0
  6 35  1  0
  6 36  1  0
  6 37  1  0
  7 38  1  0
  7 39  1  0
  7 40  1  0
  8  2  1  0
  8 41  1  0
  9  8  1  0
  9 10  1  0
  9 42  1  0
 10 11  1  0
 10 12  2  0
 11 43  1  0
 13  9  1  0
 13 44  1  0
 13 45  1  0
 14 13  1  0
 15 14  1  0
 15 46  1  0
 15 47  1  0
 16 15  1  0
 16 21  2  0
 17 16  1  0
 17 48  1  0
 18 17  2  0
 18 49  1  0
 19 18  1  0
 20 19  2  0
 20 50  1  0
 21 20  1  0
 21 51  1  0
 22 19  1  0
 22 23  2  0
 22 52  1  0
 23 24  1  0
 23 53  1  0
 24 25  1  0
 24 31  2  0
 25 30  1  0
 26 25  2  0
 26 54  1  0
 27 26  1  0
 27 55  1  0
 28 27  2  0
 28 56  1  0
 29 28  1  0
 29 57  1  0
 30 29  2  0
 30 58  1  0
M  END
> <Name>
CHEMBL5172173

> <Clean Energy>
12.8734

> <chembl_id>
CHEMBL5172173

> <chembl_pref_name>
None

> <efficacy>
0.3

> <Forcefield>
MMFF

> <ForcefieldBase>
MMFF

> <ForcefieldFFML>
<?xml version="1.0" encoding="UTF-8"?>
<!DOCTYPE ffml SYSTEM "Ffml.dtd">
<ffml version="1.0">
<forcefield name="MMFF" derivedFrom="MMFF" base="MMFF">
<atomTypes>
<atomType
name="O100"
element="O"
mass="16"
annotation=""/>
<atomType
name="C101"
element="C"
mass="12.011"
annotation=""/>
<atomType
name="N102"
element="N"
mass="14.007"
annotation=""/>
<atomType
name="S103"
element="S"
mass="32.066"
annotation=""/>
<atomType
name="H104"
element="H"
mass="1.008"
annotation=""/>
</atomTypes>
<parameters>
</parameters>
</forcefield>
</ffml>

> <Initial Potential Energy>
115.68195

> <Initial RMS Gradient>
24.38713

> <Minimization Criteria>
CONJUG> Minimization exiting with gradient tolerance ( 0.0100000) satisfied.

> <CHARMm Energy>
27.27678

> <Potential Energy>
27.27678

> <RMS Gradient>
0.00907

> <Bond Energy>
5.99058

> <Angle Energy>
12.83943

> <STRBend>
0.82045

> <Dihedral Energy>
14.45474

> <OOPLane>
0.74367

> <Van der Waals Energy>
56.74647

> <Electrostatic Energy>
-64.31856

> <Hydrogen Bond Energy>
0

> <Solvation Free Energy>
0

> <HasGasteigerCharges>
true

> <REMARK99>
REMARK  99  MacroMolecule created from Mol2 file
REMARK  99  CHEMBL5172173
REMARK  99  PROTEIN
REMARK  99  GASTEIGER
REMARK  99
REMARK  99

$$$$
CHEMBL3393185
  SciTegic05292516403D

 50 52  0  0  0  0            999 V2000
    2.7451   -2.5305    0.2420 C   0  0
    2.4597   -1.0569    0.4171 C   0  0
    3.3257   -3.0101   -0.7218 O   0  0
    2.3033   -3.3097    1.2609 O   0  0
    1.0777   -0.5766    0.0319 C   0  0
    0.7481    0.7774    0.2592 C   0  0
   -0.4872    1.3226   -0.1382 C   0  0
   -1.4156    0.4867   -0.7510 C   0  0
   -1.1082   -0.8611   -0.9748 C   0  0
    0.1312   -1.3885   -0.5979 C   0  0
   -1.7689    3.4951   -0.2852 C   0  0
   -1.5555    4.9880   -0.1872 C   0  0
   -2.6367    5.8913   -0.0128 C   0  0
   -2.3467    7.2533    0.1466 C   0  0
   -1.0352    7.7323    0.0868 C   0  0
    0.0144    6.8597   -0.1534 C   0  0
   -0.2448    5.4974   -0.2985 C   0  0
   -2.8722    3.0770   -0.6243 O   0  0
   -0.6746    2.7104    0.0639 N   0  0
   -5.1585    6.1350    0.1293 C   0  0
   -6.4169    5.3203    0.1121 C   0  0
   -7.6263    5.9948   -0.1120 C   0  0
   -8.8366    5.2986   -0.1200 C   0  0
   -8.8573    3.9203    0.0966 C   0  0
   -7.6578    3.2420    0.3319 C   0  0
   -6.4390    3.9347    0.3433 C   0  0
   -5.2449    7.3481    0.2764 O   0  0
   -3.9780    5.4173   -0.0252 N   0  0
  -10.1039    3.3601    0.0635 O   0  0
  -10.1739    1.9469    0.2053 C   0  0
    2.6656   -0.7954    1.4627 H   0  0
    3.1992   -0.5157   -0.1872 H   0  0
    1.8035   -2.8052    1.9325 H   0  0
    1.4922    1.4209    0.7258 H   0  0
   -2.3800    0.8554   -1.0863 H   0  0
   -1.8322   -1.5045   -1.4718 H   0  0
    0.3394   -2.4319   -0.8303 H   0  0
   -3.1298    7.9911    0.3030 H   0  0
   -0.8533    8.8000    0.2021 H   0  0
    1.0358    7.2228   -0.2349 H   0  0
    0.5992    4.8541   -0.5317 H   0  0
    0.0989    3.1773    0.5176 H   0  0
   -7.6291    7.0696   -0.2811 H   0  0
   -9.7691    5.8324   -0.2944 H   0  0
   -7.6476    2.1747    0.5218 H   0  0
   -5.5359    3.3660    0.5567 H   0  0
   -4.0326    4.4173   -0.2326 H   0  0
  -11.2247    1.6543    0.1170 H   0  0
   -9.8238    1.6324    1.1940 H   0  0
   -9.6199    1.4399   -0.5919 H   0  0
  1  2  1  0
  1  3  2  0
  1  4  1  0
  2  5  1  0
  2 31  1  0
  2 32  1  0
  4 33  1  0
  5  6  1  0
  5 10  2  0
  6  7  2  0
  6 34  1  0
  7  8  1  0
  7 19  1  0
  8  9  2  0
  8 35  1  0
  9 10  1  0
  9 36  1  0
 10 37  1  0
 11 12  1  0
 11 18  2  0
 11 19  1  0
 12 13  1  0
 12 17  2  0
 13 14  2  0
 13 28  1  0
 14 15  1  0
 14 38  1  0
 15 16  2  0
 15 39  1  0
 16 17  1  0
 16 40  1  0
 17 41  1  0
 19 42  1  0
 20 21  1  0
 20 27  2  0
 20 28  1  0
 21 22  1  0
 21 26  2  0
 22 23  2  0
 22 43  1  0
 23 24  1  0
 23 44  1  0
 24 25  2  0
 24 29  1  0
 25 26  1  0
 25 45  1  0
 26 46  1  0
 28 47  1  0
 29 30  1  0
 30 48  1  0
 30 49  1  0
 30 50  1  0
M  END
> <Name>
CHEMBL3393185

> <Clean Energy>
3.98865

> <chembl_id>
CHEMBL3393185

> <chembl_pref_name>
None

> <efficacy>
0.125356125

> <Forcefield>
MMFF

> <ForcefieldBase>
MMFF

> <ForcefieldFFML>
<?xml version="1.0" encoding="UTF-8"?>
<!DOCTYPE ffml SYSTEM "Ffml.dtd">
<ffml version="1.0">
<forcefield name="MMFF" derivedFrom="MMFF" base="MMFF">
<atomTypes>
<atomType
name="C100"
element="C"
mass="12.011"
annotation=""/>
<atomType
name="O101"
element="O"
mass="16"
annotation=""/>
<atomType
name="N102"
element="N"
mass="14.007"
annotation=""/>
<atomType
name="H103"
element="H"
mass="1.008"
annotation=""/>
</atomTypes>
<parameters>
</parameters>
</forcefield>
</ffml>

> <Initial Potential Energy>
159.31243

> <Initial RMS Gradient>
32.73582

> <Minimization Criteria>
CONJUG> Minimization exiting with gradient tolerance ( 0.0100000) satisfied.

> <CHARMm Energy>
62.75836

> <Potential Energy>
62.75836

> <RMS Gradient>
0.00907

> <Bond Energy>
8.06381

> <Angle Energy>
19.19823

> <STRBend>
1.98015

> <Dihedral Energy>
3.92148

> <OOPLane>
0.08936

> <Van der Waals Energy>
71.20236

> <Electrostatic Energy>
-41.69702

> <Hydrogen Bond Energy>
0

> <Solvation Free Energy>
0

> <HasGasteigerCharges>
true

> <REMARK99>
REMARK  99  MacroMolecule created from Mol2 file
REMARK  99  CHEMBL3393185
REMARK  99  PROTEIN
REMARK  99  GASTEIGER
REMARK  99
REMARK  99

$$$$
CHEMBL180954
  SciTegic05292516403D

 52 55  0  0  0  0            999 V2000
    3.1700    1.7211   -0.6336 C   0  0
    4.1055    2.6597   -0.2812 N   0  0
    4.6108    0.7305    0.6980 N   0  0
    4.9569    2.0584    0.5266 C   0  0
    2.0271    1.7962   -1.4421 C   0  0
    1.6712    3.0739   -2.0069 N   0  3
    3.4711    0.4906   -0.0458 C   0  0
   10.1119   -4.4911   -0.1326 C   0  0
    9.7039   -3.2186   -0.5860 C   0  0
    9.4142   -5.1843    0.9773 C   0  0
    5.2327   -0.2146    1.6187 C   0  0
    1.4258    3.1068   -3.2243 O   0  5
    1.5287    4.0361   -1.2373 O   0  0
    8.5763   -2.4624   -0.0192 C   0  0
    8.2121   -5.3834    0.9949 O   0  0
    7.2585   -2.7553   -0.3928 C   0  0
    8.7883   -1.3964    0.8658 C   0  0
    6.3941   -0.9668    1.0159 C   0  0
    1.2226    0.6753   -1.6860 C   0  0
   10.2676   -5.5501    1.9601 O   0  0
    6.1348    2.7090    1.1854 C   0  0
    2.6745   -0.6500   -0.2455 C   0  0
    7.7125   -0.6626    1.3823 C   0  0
    6.1827   -2.0199    0.1168 C   0  0
   11.1826   -5.1658   -0.7453 C   0  0
   10.4209   -2.6436   -1.6524 C   0  0
    1.5566   -0.5371   -1.0862 C   0  0
    6.2233    4.2073    0.8884 C   0  0
   11.4910   -3.3109   -2.2524 C   0  0
   11.8707   -4.5731   -1.8019 C   0  0
    7.4264    4.8392    1.5710 C   0  0
    5.5413    0.3400    2.5118 H   0  0
    4.4657   -0.9205    1.9585 H   0  0
    7.0573   -3.5783   -1.0772 H   0  0
    9.7985   -1.1260    1.1637 H   0  0
    0.3440    0.7486   -2.3234 H   0  0
   11.1334   -5.1050    1.8859 H   0  0
    6.0713    2.5641    2.2700 H   0  0
    7.0511    2.2206    0.8356 H   0  0
    2.9021   -1.5996    0.2288 H   0  0
    7.9204    0.1426    2.0838 H   0  0
    5.1785   -2.3008   -0.1888 H   0  0
   11.4601   -6.1650   -0.4181 H   0  0
   10.1282   -1.6643   -2.0332 H   0  0
    0.9398   -1.4168   -1.2637 H   0  0
    6.2974    4.3741   -0.1932 H   0  0
    5.3113    4.7134    1.2280 H   0  0
   12.0216   -2.8488   -3.0823 H   0  0
   12.6907   -5.0982   -2.2854 H   0  0
    7.4720    5.9090    1.3445 H   0  0
    8.3586    4.3792    1.2278 H   0  0
    7.3659    4.7243    2.6579 H   0  0
  2  1  1  0
  3  4  1  0
  3  7  1  0
  4  2  2  0
  5  1  2  0
  6  5  1  0
  7  1  1  0
  8  9  1  0
  9 14  1  0
 10  8  1  0
 11  3  1  0
 11 32  1  0
 11 33  1  0
 12  6  1  0
 13  6  2  0
 14 16  2  0
 15 10  2  0
 16 24  1  0
 16 34  1  0
 17 14  1  0
 17 23  2  0
 17 35  1  0
 18 11  1  0
 19  5  1  0
 19 27  2  0
 19 36  1  0
 20 10  1  0
 20 37  1  0
 21  4  1  0
 21 38  1  0
 21 39  1  0
 22  7  2  0
 22 40  1  0
 23 18  1  0
 23 41  1  0
 24 18  2  0
 24 42  1  0
 25  8  2  0
 25 30  1  0
 25 43  1  0
 26  9  2  0
 26 44  1  0
 27 22  1  0
 27 45  1  0
 28 21  1  0
 28 46  1  0
 28 47  1  0
 29 26  1  0
 29 48  1  0
 30 29  2  0
 30 49  1  0
 31 28  1  0
 31 50  1  0
 31 51  1  0
 31 52  1  0
M  CHG  2   6   1  12  -1
M  END
> <Name>
CHEMBL180954

> <Clean Energy>
46.845299

> <chembl_id>
CHEMBL180954

> <chembl_pref_name>
None

> <efficacy>
0.003988604

> <Forcefield>
MMFF

> <ForcefieldBase>
MMFF

> <ForcefieldFFML>
<?xml version="1.0" encoding="UTF-8"?>
<!DOCTYPE ffml SYSTEM "Ffml.dtd">
<ffml version="1.0">
<forcefield name="MMFF" derivedFrom="MMFF" base="MMFF">
<atomTypes>
<atomType
name="C100"
element="C"
mass="12.011"
annotation=""/>
<atomType
name="N101"
element="N"
mass="14.007"
annotation=""/>
<atomType
name="O102"
element="O"
mass="16"
annotation=""/>
<atomType
name="H103"
element="H"
mass="1.008"
annotation=""/>
</atomTypes>
<parameters>
</parameters>
</forcefield>
</ffml>

> <Initial Potential Energy>
303.97401

> <Initial RMS Gradient>
42.86568

> <Minimization Criteria>
CONJUG> Minimization exiting with gradient tolerance ( 0.0100000) satisfied.

> <CHARMm Energy>
105.16238

> <Potential Energy>
105.16238

> <RMS Gradient>
0.00989

> <Bond Energy>
6.96391

> <Angle Energy>
10.71875

> <STRBend>
0.09858

> <Dihedral Energy>
13.89909

> <OOPLane>
0.31646

> <Van der Waals Energy>
54.82891

> <Electrostatic Energy>
18.33669

> <Hydrogen Bond Energy>
0

> <Solvation Free Energy>
0

> <HasGasteigerCharges>
true

> <REMARK99>
REMARK  99  MacroMolecule created from Mol2 file
REMARK  99  CHEMBL180954
REMARK  99  PROTEIN
REMARK  99  GASTEIGER
REMARK  99
REMARK  99

$$$$
CHEMBL1947140
  SciTegic05292516403D

 59 64  0  0  0  0            999 V2000
   -5.9871    0.3030    0.3747 C   0  0
   -6.0225   -1.0625    0.0125 C   0  0
   -4.8040   -1.7104   -0.2936 C   0  0
   -4.7829    1.0304    0.4161 C   0  0
   -3.6003    0.3820    0.0870 C   0  0
   -3.6218   -0.9787   -0.2519 C   0  0
   -2.3062   -1.3762   -0.5498 N   0  0
   -1.4557   -0.2452   -0.4652 C   0  0
   -2.2559    0.8315   -0.0091 N   0  0
   -0.2815   -0.2443   -0.7991 O   0  0
   -1.8244    2.1432    0.2151 C   0  0
   -1.8877   -2.6380   -1.1187 C   0  0
   -0.7620   -3.3290   -0.3693 C   0  0
   -0.9530   -3.8180    0.9254 C   0  0
    0.0773   -4.4978    1.5802 C   0  0
    1.3142   -4.7005    0.9561 C   0  0
    1.5524   -4.2096   -0.3339 C   0  0
    0.4931   -3.5283   -0.9810 C   0  0
   -1.9646    4.3136    0.5028 O   0  0
   -2.6928    3.1625    0.3505 N   0  0
   -0.6438    4.0248    0.5010 C   0  0
   -0.4764    2.6575    0.3420 C   0  0
    0.8538    2.1856    0.3725 C   0  0
    1.9219    3.0963    0.5112 C   0  0
    1.6908    4.4675    0.6372 C   0  0
    0.3833    4.9617    0.6453 C   0  0
    2.6584    5.4273    0.7727 O   0  0
    4.0071    4.9851    0.6587 C   0  0
   -7.3475   -1.8208   -0.0293 C   0  0
   -7.8471   -2.0537    1.2131 F   0  0
   -7.1976   -3.0468   -0.6099 F   0  0
   -8.3181   -1.1777   -0.7281 F   0  0
    2.8796   -4.4239   -1.0626 C   0  0  2  0  0  0
    4.1076   -4.6117   -0.1868 C   0  0
    4.8393   -3.4816   -0.2713 N   0  0
    4.3745   -2.6941   -1.2499 C   0  0
    3.2123   -3.1937   -1.7521 O   0  0
    4.4548   -5.6160    0.4226 O   0  0
    4.9432   -1.6993   -1.6688 O   0  0
    2.7856   -5.5500   -2.0886 C   0  0
   -6.9157    0.8221    0.6194 H   0  0
   -4.8062   -2.7606   -0.5671 H   0  0
   -4.8210    2.0811    0.6893 H   0  0
   -2.7317   -3.3322   -1.1842 H   0  0
   -1.5685   -2.4314   -2.1478 H   0  0
   -1.9073   -3.6825    1.4299 H   0  0
   -0.0870   -4.8837    2.5843 H   0  0
    2.0772   -5.2530    1.5010 H   0  0
    0.6526   -3.1360   -1.9867 H   0  0
    1.0895    1.1289    0.2995 H   0  0
    2.9322    2.6907    0.5195 H   0  0
    0.1752    6.0239    0.7568 H   0  0
    4.6524    5.8661    0.7309 H   0  0
    4.1922    4.5183   -0.3146 H   0  0
    4.2722    4.3130    1.4814 H   0  0
    5.7041   -3.3129    0.2075 H   0  0
    3.7378   -5.6813   -2.6161 H   0  0
    2.0334   -5.3302   -2.8548 H   0  0
    2.5274   -6.5041   -1.6161 H   0  0
  1  2  2  0
  1 41  1  0
  2  3  1  0
  2 29  1  0
  3  6  2  0
  3 42  1  0
  4  1  1  0
  4 43  1  0
  5  4  2  0
  5  6  1  0
  6  7  1  0
  7  8  1  0
  7 12  1  0
  8  9  1  0
  8 10  2  0
  9  5  1  0
  9 11  1  0
 11 22  1  0
 12 13  1  0
 12 44  1  0
 12 45  1  0
 13 14  2  0
 14 15  1  0
 14 46  1  0
 15 16  2  0
 15 47  1  0
 16 17  1  0
 16 48  1  0
 17 18  2  0
 17 33  1  0
 18 13  1  0
 18 49  1  0
 19 20  1  0
 20 11  2  0
 21 19  1  0
 21 22  2  0
 22 23  1  0
 23 24  2  0
 23 50  1  0
 24 25  1  0
 24 51  1  0
 25 26  2  0
 25 27  1  0
 26 21  1  0
 26 52  1  0
 27 28  1  0
 28 53  1  0
 28 54  1  0
 28 55  1  0
 29 30  1  0
 29 31  1  0
 29 32  1  0
 33 34  1  0
 33 40  1  0
 34 35  1  0
 34 38  2  0
 35 36  1  0
 35 56  1  0
 36 37  1  0
 36 39  2  0
 37 33  1  0
 40 57  1  0
 40 58  1  0
 40 59  1  0
M  END
> <Name>
CHEMBL1947140

> <Clean Energy>
106.748001

> <chembl_id>
CHEMBL1947140

> <chembl_pref_name>
None

> <efficacy>
0.45

> <Forcefield>
MMFF

> <ForcefieldBase>
MMFF

> <ForcefieldFFML>
<?xml version="1.0" encoding="UTF-8"?>
<!DOCTYPE ffml SYSTEM "Ffml.dtd">
<ffml version="1.0">
<forcefield name="MMFF" derivedFrom="MMFF" base="MMFF">
<atomTypes>
<atomType
name="C100"
element="C"
mass="12.011"
annotation=""/>
<atomType
name="N101"
element="N"
mass="14.007"
annotation=""/>
<atomType
name="O102"
element="O"
mass="16"
annotation=""/>
<atomType
name="F103"
element="F"
mass="18.998"
annotation=""/>
<atomType
name="H104"
element="H"
mass="1.008"
annotation=""/>
</atomTypes>
<parameters>
</parameters>
</forcefield>
</ffml>

> <Initial Potential Energy>
127.36381

> <Initial RMS Gradient>
31.53102

> <Minimization Criteria>
STEEPD> Minimization exiting with gradient tolerance ( 3.0000000) satisfied.

> <CHARMm Energy>
29.90871

> <Potential Energy>
29.90871

> <RMS Gradient>
0.02704

> <Bond Energy>
11.59969

> <Angle Energy>
43.06915

> <STRBend>
-2.22122

> <Dihedral Energy>
10.8168

> <OOPLane>
0.50615

> <Van der Waals Energy>
62.06586

> <Electrostatic Energy>
-95.92773

> <Hydrogen Bond Energy>
0

> <Solvation Free Energy>
0

> <HasGasteigerCharges>
true

> <REMARK99>
REMARK  99  MacroMolecule created from Mol2 file
REMARK  99  CHEMBL1947140
REMARK  99  PROTEIN
REMARK  99  GASTEIGER
REMARK  99
REMARK  99

$$$$
CHEMBL2042814
  SciTegic05292516403D

 65 69  0  0  0  0            999 V2000
   29.1489  -22.8159   -1.3387 O   0  0
   28.0107  -22.0135   -1.2361 C   0  0
   28.3290  -20.6930   -0.5930 C   0  0  2  0  0  0
   29.6387  -21.0536    0.0534 C   0  0
   30.1238  -22.2513   -0.5230 C   0  0
   31.4082  -22.7542   -0.2627 C   0  0
   32.1980  -22.0061    0.6467 C   0  0
   31.6799  -20.8497    1.2711 C   0  0
   30.4094  -20.3727    0.9677 C   0  0
   30.0037  -19.2364    1.5908 O   0  0
   33.4666  -22.4526    0.9478 O   0  0
   34.4331  -21.4370    1.2083 C   0  0
   31.9262  -23.9772   -0.9892 C   0  0
   33.1613  -24.4663   -0.6053 N   0  0
   33.8602  -25.5424   -1.2792 C   0  0
   35.2123  -25.7785   -0.6257 C   0  0
   36.2885  -24.8642   -0.8886 C   0  0
   37.5303  -25.0647   -0.2428 C   0  0
   36.6361  -27.0274    0.8870 C   0  0
   35.3777  -26.8466    0.3009 C   0  0
   34.2119  -27.7611    0.6412 C   0  0
   34.4234  -28.7864    1.7508 C   0  0
   38.5861  -24.1594   -0.4497 C   0  0
   38.4492  -23.0633   -1.2978 C   0  0
   37.2477  -22.8561   -1.9539 C   0  0
   36.1866  -23.7424   -1.7515 C   0  0
   31.2877  -24.4908   -1.9011 O   0  0
   27.1659  -20.2821    0.3129 C   0  0
   25.7675  -20.5711   -0.1754 C   0  0
   25.6363  -21.5863   -1.0608 C   0  0
   26.7555  -22.4220   -1.4674 C   0  0
   24.4414  -21.9944   -1.6165 O   0  0
   24.5561  -19.7884    0.2494 C   0  0
   24.7187  -18.6239    1.1887 C   0  0
   23.4407  -20.0950   -0.1839 O   0  0
   27.3493  -19.6414    1.3510 O   0  0
   28.5495  -19.5920   -1.6430 C   0  0
   37.6900  -26.1627    0.6083 C   0  0
   38.8781  -26.4016    1.1934 F   0  0
   32.2590  -20.3013    2.0089 H   0  0
   29.0237  -19.2289    1.6554 H   0  0
   35.4242  -21.8880    1.0987 H   0  0
   34.3464  -21.0771    2.2380 H   0  0
   34.3619  -20.6111    0.4920 H   0  0
   33.6243  -24.0053    0.1712 H   0  0
   33.2154  -26.4254   -1.2685 H   0  0
   33.9696  -25.2913   -2.3402 H   0  0
   36.8360  -27.8383    1.5807 H   0  0
   33.3606  -27.1374    0.9403 H   0  0
   33.9319  -28.3097   -0.2663 H   0  0
   33.4999  -29.3506    1.9185 H   0  0
   34.6966  -28.3031    2.6947 H   0  0
   35.2061  -29.5054    1.4875 H   0  0
   39.5340  -24.3091    0.0625 H   0  0
   39.2883  -22.3882   -1.4501 H   0  0
   37.1271  -22.0062   -2.6206 H   0  0
   35.2604  -23.5293   -2.2817 H   0  0
   26.5500  -23.4078   -1.8747 H   0  0
   23.6955  -21.4267   -1.2941 H   0  0
   25.4650  -17.9243    0.8042 H   0  0
   24.9874  -18.9809    2.1856 H   0  0
   23.7678  -18.0866    1.2617 H   0  0
   28.8587  -18.6533   -1.1672 H   0  0
   27.6336  -19.3785   -2.2065 H   0  0
   29.3264  -19.8629   -2.3685 H   0  0
  1  2  1  0
  2  3  1  0
  2 31  2  0
  3  4  1  0
  3 28  1  0
  3 37  1  0
  4  5  2  0
  4  9  1  0
  5  1  1  0
  5  6  1  0
  6  7  2  0
  6 13  1  0
  7  8  1  0
  7 11  1  0
  8  9  2  0
  8 40  1  0
  9 10  1  0
 10 41  1  0
 11 12  1  0
 12 42  1  0
 12 43  1  0
 12 44  1  0
 13 14  1  0
 13 27  2  0
 14 15  1  0
 14 45  1  0
 15 16  1  0
 15 46  1  0
 15 47  1  0
 16 20  1  0
 17 16  2  0
 17 26  1  0
 18 17  1  0
 18 23  1  0
 19 20  2  0
 19 38  1  0
 19 48  1  0
 20 21  1  0
 21 22  1  0
 21 49  1  0
 21 50  1  0
 22 51  1  0
 22 52  1  0
 22 53  1  0
 23 24  2  0
 23 54  1  0
 24 25  1  0
 24 55  1  0
 25 26  2  0
 25 56  1  0
 26 57  1  0
 28 29  1  0
 28 36  2  0
 29 30  2  0
 29 33  1  0
 30 31  1  0
 30 32  1  0
 31 58  1  0
 32 59  1  0
 33 34  1  0
 33 35  2  0
 34 60  1  0
 34 61  1  0
 34 62  1  0
 37 63  1  0
 37 64  1  0
 37 65  1  0
 38 18  2  0
 38 39  1  0
M  END
> <Name>
CHEMBL2042814

> <Clean Energy>
63.851898

> <chembl_id>
CHEMBL2042814

> <chembl_pref_name>
None

> <efficacy>
0.499245283

> <Forcefield>
MMFF

> <ForcefieldBase>
MMFF

> <ForcefieldFFML>
<?xml version="1.0" encoding="UTF-8"?>
<!DOCTYPE ffml SYSTEM "Ffml.dtd">
<ffml version="1.0">
<forcefield name="MMFF" derivedFrom="MMFF" base="MMFF">
<atomTypes>
<atomType
name="O100"
element="O"
mass="16"
annotation=""/>
<atomType
name="C101"
element="C"
mass="12.011"
annotation=""/>
<atomType
name="N102"
element="N"
mass="14.007"
annotation=""/>
<atomType
name="F103"
element="F"
mass="18.998"
annotation=""/>
<atomType
name="H104"
element="H"
mass="1.008"
annotation=""/>
</atomTypes>
<parameters>
</parameters>
</forcefield>
</ffml>

> <Initial Potential Energy>
311.78946

> <Initial RMS Gradient>
78.05804

> <Minimization Criteria>
STEEPD> Minimization exiting with gradient tolerance ( 3.0000000) satisfied.

> <CHARMm Energy>
68.87153

> <Potential Energy>
68.87153

> <RMS Gradient>
0.02787

> <Bond Energy>
12.71056

> <Angle Energy>
30.51441

> <STRBend>
0.74189

> <Dihedral Energy>
4.78533

> <OOPLane>
0.53481

> <Van der Waals Energy>
84.73434

> <Electrostatic Energy>
-65.1498

> <Hydrogen Bond Energy>
0

> <Solvation Free Energy>
0

> <HasGasteigerCharges>
true

> <REMARK99>
REMARK  99  MacroMolecule created from Mol2 file
REMARK  99  CHEMBL2042814
REMARK  99  PROTEIN
REMARK  99  GASTEIGER
REMARK  99
REMARK  99

$$$$
CHEMBL501617
  SciTegic05292516403D

122123  0  0  0  0            999 V2000
    7.6975   -5.6624    0.5129 C   0  0
    8.7032   -4.5306    0.5966 C   0  0
    9.9719   -4.9588    0.7980 O   0  0
    8.4082   -3.3476    0.4986 O   0  0
    6.2882   -5.1189    0.2286 C   0  0
    5.2082   -6.2004   -0.0066 C   0  0  2  0  0  0
    3.9160   -5.5108   -0.5168 C   0  0
    2.6945   -6.4128   -0.8349 C   0  0  1  0  0  0
    4.9509   -7.0157    1.2621 C   0  0
    1.5350   -5.5149   -1.3556 C   0  0
    3.0575   -7.5293   -1.8141 C   0  0
    0.2093   -6.2462   -1.6625 C   0  0  1  0  0  0
   -0.9864   -5.3485   -1.3367 C   0  0
    0.0783   -6.6350   -3.1368 C   0  0
   -1.0298   -4.1553   -1.6370 O   0  0
   -2.1722   -5.9881   -0.6915 C   0  0
   -3.2762   -5.2949   -0.3540 C   0  0
   -4.5257   -5.8830    0.2924 C   0  0  1  0  0  0
   -3.3844   -3.9242   -0.5542 O   0  0
   -5.6796   -5.8860   -0.7399 C   0  0
   -4.3305   -7.2592    0.9382 C   0  0
   -7.0836   -6.0685   -0.1108 C   0  0  1  0  0  0
   -8.1058   -5.0715   -0.7093 C   0  0
   -7.5930   -7.4969   -0.3445 C   0  0
   -7.9171   -3.5998   -0.4294 C   0  0
   -7.1000   -3.0350    0.4736 C   0  0
   -6.9726   -1.5318    0.6950 C   0  0  1  0  0  0
   -7.4761   -1.2825    2.1241 C   0  0
   -5.5095   -1.0382    0.4516 C   0  0  2  0  0  0
   -5.2680    0.4955    0.2837 C   0  0  2  0  0  0
   -5.0512   -1.6071   -0.7927 O   0  0
   -3.7948    0.9055    0.5934 C   0  0  2  0  0  0
   -6.2046    1.4051    1.0817 C   0  0
   -2.7355    0.2200   -0.2781 C   0  0
   -3.4878    0.6550    1.9673 O   0  0
   -1.3090    0.7009    0.0021 C   0  0  1  0  0  0
   -0.3987    0.0510   -0.9091 O   0  0
    0.6895    0.9587   -1.2286 C   0  0  1  0  0  0
    0.4252    2.2248   -0.4066 C   0  0
   -1.0708    2.1872   -0.1912 C   0  0
    2.0322    0.2637   -0.9180 C   0  0  2  0  0  0
    2.2114    0.0163    0.4944 O   0  0
    3.6286   -0.2044    0.7294 C   0  0  1  0  0  0
    4.3588    0.3103   -0.5186 C   0  0
    3.2825    1.0399   -1.2970 C   0  0
    4.0109    0.5238    2.0465 C   0  0  2  0  0  0
    3.1475    0.0616    3.0989 O   0  0
    3.8746    2.0419    2.0080 C   0  0
   -1.0071    0.4023    1.0141 H   0  0
    0.5679    1.2443   -2.7331 C   0  0
    2.0384   -0.7215   -1.4045 H   0  0
    3.8341   -1.7188    0.8864 C   0  0
    8.0040   -6.3360   -0.2943 H   0  0
    7.7166   -6.1994    1.4659 H   0  0
   10.0748   -5.9277    0.8685 H   0  0
    5.9796   -4.4658    1.0557 H   0  0
    6.3399   -4.4772   -0.6615 H   0  0
    5.5816   -6.8746   -0.7862 H   0  0
    3.6035   -4.7698    0.2307 H   0  0
    4.1672   -4.9430   -1.4231 H   0  0
    2.3549   -6.8781    0.0987 H   0  0
    4.2201   -7.8101    1.0842 H   0  0
    4.5718   -6.3805    2.0696 H   0  0
    5.8644   -7.5035    1.6147 H   0  0
    1.3506   -4.7520   -0.5870 H   0  0
    1.8688   -4.9666   -2.2466 H   0  0
    2.2185   -8.2163   -1.9574 H   0  0
    3.8841   -8.1415   -1.4421 H   0  0
    3.3478   -7.1230   -2.7887 H   0  0
    0.1443   -7.1442   -1.0369 H   0  0
   -0.8680   -7.1584   -3.3158 H   0  0
    0.8848   -7.2923   -3.4677 H   0  0
    0.0842   -5.7489   -3.7822 H   0  0
   -2.1051   -7.0560   -0.5287 H   0  0
   -4.7880   -5.1993    1.1108 H   0  0
   -2.5596   -3.6021   -0.9921 H   0  0
   -5.6544   -4.9427   -1.2997 H   0  0
   -5.4935   -6.6661   -1.4907 H   0  0
   -5.2000   -7.5310    1.5450 H   0  0
   -3.4634   -7.2615    1.6082 H   0  0
   -4.1872   -8.0429    0.1869 H   0  0
   -7.0378   -5.9090    0.9733 H   0  0
   -8.1188   -5.2001   -1.8003 H   0  0
   -9.1123   -5.3344   -0.3587 H   0  0
   -8.5627   -7.6456    0.1422 H   0  0
   -6.9023   -8.2401    0.0630 H   0  0
   -7.7187   -7.7042   -1.4129 H   0  0
   -8.5283   -2.9447   -1.0496 H   0  0
   -6.4822   -3.6524    1.1190 H   0  0
   -7.6368   -1.0199   -0.0135 H   0  0
   -7.7508   -0.2418    2.2968 H   0  0
   -6.7220   -1.5643    2.8675 H   0  0
   -8.3820   -1.8645    2.3347 H   0  0
   -4.8636   -1.4310    1.2467 H   0  0
   -5.4367    0.7421   -0.7751 H   0  0
   -4.7648   -2.5263   -0.6077 H   0  0
   -3.7074    1.9880    0.4397 H   0  0
   -5.9533    2.4589    0.9141 H   0  0
   -6.1353    1.2231    2.1577 H   0  0
   -7.2430    1.2829    0.7586 H   0  0
   -2.7396   -0.8628   -0.1045 H   0  0
   -2.9694    0.3635   -1.3403 H   0  0
   -3.9556    1.3171    2.5040 H   0  0
    0.9157    2.1763    0.5710 H   0  0
    0.7624    3.1430   -0.8970 H   0  0
   -1.3902    2.7869    0.6656 H   0  0
   -1.5881    2.5585   -1.0837 H   0  0
    5.2220    0.9443   -0.2964 H   0  0
    4.7368   -0.5224   -1.1251 H   0  0
    3.2220    2.0782   -0.9523 H   0  0
    3.4766    1.0448   -2.3732 H   0  0
    5.0386    0.2692    2.3297 H   0  0
    2.2616   -0.0268    2.6856 H   0  0
    4.1176    2.4645    2.9895 H   0  0
    2.8467    2.3456    1.7923 H   0  0
    4.5406    2.4972    1.2712 H   0  0
    1.2915    1.9943   -3.0673 H   0  0
   -0.4359    1.5995   -2.9918 H   0  0
    0.7241    0.3279   -3.3139 H   0  0
    4.8842   -1.9606    1.0797 H   0  0
    3.5177   -2.2523   -0.0170 H   0  0
    3.2257   -2.1239    1.7021 H   0  0
  1  2  1  0
  1  5  1  0
  1 53  1  0
  1 54  1  0
  2  3  1  0
  2  4  2  0
  3 55  1  0
  5  6  1  0
  5 56  1  0
  5 57  1  0
  6  7  1  0
  6  9  1  0
  6 58  1  0
  7  8  1  0
  7 59  1  0
  7 60  1  0
  8 10  1  0
  8 11  1  0
  8 61  1  0
  9 62  1  0
  9 63  1  0
  9 64  1  0
 10 12  1  0
 10 65  1  0
 10 66  1  0
 11 67  1  0
 11 68  1  0
 11 69  1  0
 12 13  1  0
 12 14  1  0
 12 70  1  0
 13 15  2  0
 13 16  1  0
 14 71  1  0
 14 72  1  0
 14 73  1  0
 16 17  2  0
 16 74  1  0
 17 18  1  0
 17 19  1  0
 18 20  1  0
 18 21  1  0
 18 75  1  0
 19 76  1  0
 20 22  1  0
 20 77  1  0
 20 78  1  0
 21 79  1  0
 21 80  1  0
 21 81  1  0
 22 23  1  0
 22 24  1  0
 22 82  1  0
 23 25  1  0
 23 83  1  0
 23 84  1  0
 24 85  1  0
 24 86  1  0
 24 87  1  0
 25 26  2  0
 25 88  1  0
 26 27  1  0
 26 89  1  0
 27 28  1  0
 27 29  1  0
 27 90  1  0
 28 91  1  0
 28 92  1  0
 28 93  1  0
 29 30  1  0
 29 31  1  0
 29 94  1  0
 30 32  1  0
 30 33  1  0
 30 95  1  0
 31 96  1  0
 32 34  1  0
 32 35  1  0
 32 97  1  0
 33 98  1  0
 33 99  1  0
 33100  1  0
 34 36  1  0
 34101  1  0
 34102  1  0
 35103  1  0
 36 37  1  0
 36 49  1  0
 37 38  1  0
 38 39  1  0
 38 41  1  0
 38 50  1  0
 39 40  1  0
 39104  1  0
 39105  1  0
 40 36  1  0
 40106  1  0
 40107  1  0
 41 42  1  0
 41 51  1  0
 42 43  1  0
 43 44  1  0
 43 46  1  0
 43 52  1  0
 44 45  1  0
 44108  1  0
 44109  1  0
 45 41  1  0
 45110  1  0
 45111  1  0
 46 47  1  0
 46 48  1  0
 46112  1  0
 47113  1  0
 48114  1  0
 48115  1  0
 48116  1  0
 50117  1  0
 50118  1  0
 50119  1  0
 52120  1  0
 52121  1  0
 52122  1  0
M  END
> <Name>
CHEMBL501617

> <Clean Energy>
114.657997

> <chembl_id>
CHEMBL501617

> <chembl_pref_name>
IONOMYCIN

> <efficacy>
0.35

> <Forcefield>
MMFF

> <ForcefieldBase>
MMFF

> <ForcefieldFFML>
<?xml version="1.0" encoding="UTF-8"?>
<!DOCTYPE ffml SYSTEM "Ffml.dtd">
<ffml version="1.0">
<forcefield name="MMFF" derivedFrom="MMFF" base="MMFF">
<atomTypes>
<atomType
name="C100"
element="C"
mass="12.011"
annotation=""/>
<atomType
name="O101"
element="O"
mass="16"
annotation=""/>
<atomType
name="H102"
element="H"
mass="1.008"
annotation=""/>
</atomTypes>
<parameters>
</parameters>
</forcefield>
</ffml>

> <Initial Potential Energy>
313.96194

> <Initial RMS Gradient>
18.03579

> <Minimization Criteria>
STEEPD> Minimization exiting with gradient tolerance ( 3.0000000) satisfied.

> <CHARMm Energy>
135.06007

> <Potential Energy>
135.06007

> <RMS Gradient>
0.09847

> <Bond Energy>
14.65601

> <Angle Energy>
29.02542

> <STRBend>
1.25862

> <Dihedral Energy>
10.2965

> <OOPLane>
0.07996

> <Van der Waals Energy>
71.47135

> <Electrostatic Energy>
8.27221

> <Hydrogen Bond Energy>
0

> <Solvation Free Energy>
0

> <HasGasteigerCharges>
true

> <REMARK99>
REMARK  99  MacroMolecule created from Mol2 file
REMARK  99  CHEMBL501617
REMARK  99  PROTEIN
REMARK  99  GASTEIGER
REMARK  99
REMARK  99

$$$$
CHEMBL2331778
  SciTegic05292516403D

 49 51  0  0  0  0            999 V2000
    7.5795  -22.5836    0.2326 C   0  0
    6.3352  -21.9163   -0.2173 C   0  0
    5.3845  -22.5932   -0.9816 C   0  0
    4.2756  -21.8989   -1.4745 C   0  0
    4.0817  -20.5554   -1.1452 C   0  0
    4.9900  -19.8899   -0.3233 C   0  0
    6.1136  -20.5772    0.1415 C   0  0
    7.5897  -23.7309    0.6579 O   0  0
    8.7209  -21.8155    0.0976 N   0  0
   10.0343  -22.3372    0.4233 C   0  0
   10.9595  -21.2350    0.9016 C   0  0
    3.7904  -17.4241   -0.5122 S   0  0
    4.8086  -18.5661    0.1571 N   0  0
    2.1737  -17.9597   -0.0052 C   0  0
    1.1872  -18.1880   -0.9710 C   0  0
   -0.0762  -18.6228   -0.5722 C   0  0
   -0.3452  -18.8076    0.7922 C   0  0
    0.6392  -18.5642    1.7609 C   0  0
    1.9068  -18.1392    1.3578 C   0  0
    5.5392  -23.9268   -1.2902 O   0  0
    4.3239  -24.8175    0.6099 C   0  0
    4.5592  -24.7330   -0.7600 C   0  0
    3.7679  -25.4809   -1.6260 C   0  0
    2.7271  -26.2312   -1.0933 C   0  0
    2.5275  -26.2130    0.2813 C   0  0
    3.3088  -25.5296    1.1517 N   0  0
    1.6990  -27.1484   -2.1181 Cl  0  0
    3.8744  -17.5054   -1.9535 O   0  0
    4.0539  -16.1920    0.1972 O   0  0
   -1.6823  -19.2297    1.2089 N   0  3
   -1.9789  -19.1306    2.4095 O   0  0
   -2.4717  -19.6081    0.3289 O   0  5
    3.5518  -22.3997   -2.1133 H   0  0
    3.2048  -20.0667   -1.5522 H   0  0
    6.8221  -20.0772    0.7978 H   0  0
    8.6641  -20.9348   -0.3971 H   0  0
    9.9463  -23.1146    1.1894 H   0  0
   10.4330  -22.8009   -0.4850 H   0  0
   11.9501  -21.6394    1.1302 H   0  0
   10.5645  -20.7589    1.8052 H   0  0
   11.0733  -20.4583    0.1380 H   0  0
    5.4849  -18.1649    0.8046 H   0  0
    1.3926  -18.0299   -2.0286 H   0  0
   -0.8416  -18.7961   -1.3273 H   0  0
    0.4275  -18.6913    2.8218 H   0  0
    2.6737  -17.9424    2.1040 H   0  0
    4.9524  -24.2950    1.3257 H   0  0
    3.9481  -25.4539   -2.6953 H   0  0
    1.7099  -26.7587    0.7403 H   0  0
  1  2  1  0
  1  8  2  0
  1  9  1  0
  2  3  1  0
  2  7  2  0
  3  4  2  0
  3 20  1  0
  4  5  1  0
  4 33  1  0
  5  6  2  0
  5 34  1  0
  6  7  1  0
  6 13  1  0
  7 35  1  0
  9 10  1  0
  9 36  1  0
 10 11  1  0
 10 37  1  0
 10 38  1  0
 11 39  1  0
 11 40  1  0
 11 41  1  0
 12 13  1  0
 12 14  1  0
 12 28  2  0
 12 29  2  0
 13 42  1  0
 14 15  1  0
 14 19  2  0
 15 16  2  0
 15 43  1  0
 16 17  1  0
 16 44  1  0
 17 18  2  0
 17 30  1  0
 18 19  1  0
 18 45  1  0
 19 46  1  0
 20 22  1  0
 21 22  1  0
 21 26  2  0
 21 47  1  0
 22 23  2  0
 23 24  1  0
 23 48  1  0
 24 25  2  0
 24 27  1  0
 25 26  1  0
 25 49  1  0
 30 31  2  0
 30 32  1  0
M  CHG  2  30   1  32  -1
M  END
> <Name>
CHEMBL2331778

> <Clean Energy>
33.8577

> <chembl_id>
CHEMBL2331778

> <chembl_pref_name>
None

> <efficacy>
0.4

> <Forcefield>
MMFF

> <ForcefieldBase>
MMFF

> <ForcefieldFFML>
<?xml version="1.0" encoding="UTF-8"?>
<!DOCTYPE ffml SYSTEM "Ffml.dtd">
<ffml version="1.0">
<forcefield name="MMFF" derivedFrom="MMFF" base="MMFF">
<atomTypes>
<atomType
name="C100"
element="C"
mass="12.011"
annotation=""/>
<atomType
name="O101"
element="O"
mass="16"
annotation=""/>
<atomType
name="N102"
element="N"
mass="14.007"
annotation=""/>
<atomType
name="S103"
element="S"
mass="32.066"
annotation=""/>
<atomType
name="Cl104"
element="Cl"
mass="35.453"
annotation=""/>
<atomType
name="H105"
element="H"
mass="1.008"
annotation=""/>
</atomTypes>
<parameters>
</parameters>
</forcefield>
</ffml>

> <Initial Potential Energy>
813.97179

> <Initial RMS Gradient>
386.96627

> <Minimization Criteria>
STEEPD> Minimization exiting with gradient tolerance ( 3.0000000) satisfied.

> <CHARMm Energy>
52.03991

> <Potential Energy>
52.03991

> <RMS Gradient>
0.04414

> <Bond Energy>
4.87172

> <Angle Energy>
16.16167

> <STRBend>
1.04635

> <Dihedral Energy>
7.19097

> <OOPLane>
0.24345

> <Van der Waals Energy>
62.18371

> <Electrostatic Energy>
-39.65796

> <Hydrogen Bond Energy>
0

> <Solvation Free Energy>
0

> <HasGasteigerCharges>
true

> <REMARK99>
REMARK  99  MacroMolecule created from Mol2 file
REMARK  99  CHEMBL2331778
REMARK  99  PROTEIN
REMARK  99  GASTEIGER
REMARK  99
REMARK  99

$$$$
CHEMBL1956365
  SciTegic05292516403D

 32 33  0  0  0  0            999 V2000
   10.9879   -7.4684   -0.0243 C   0  0
   10.9953   -8.2663   -1.1634 C   0  0
   12.2076   -8.7388   -1.6650 C   0  0
   13.4097   -8.4127   -1.0231 C   0  0
   13.4003   -7.6135    0.1213 C   0  0
   12.1807   -7.1394    0.6137 C   0  0
   14.4845   -7.2258    0.8524 O   0  0
   15.7957   -7.6854    0.4967 C   0  0  2  0  0  0
   16.0485   -9.0463    1.1628 C   0  0
   17.2378   -9.7781    0.5895 C   0  0
   18.4559   -9.8017    1.2824 C   0  0
   19.5688  -10.4410    0.7349 C   0  0
   19.4731  -11.0695   -0.5045 C   0  0
   18.2640  -11.0608   -1.1970 C   0  0
   17.1502  -10.4198   -0.6531 C   0  0
   16.7904   -6.6479    1.0380 C   0  0
   18.0228   -6.7198    0.4730 O   0  0
   16.5383   -5.8065    1.8892 O   0  0
    9.5302   -8.6793   -1.9653 Cl  0  0
    9.8357   -7.0036    0.4805 F   0  0
   12.2250   -9.3623   -2.5556 H   0  0
   14.3264   -8.8026   -1.4497 H   0  0
   12.1540   -6.5111    1.5002 H   0  0
   15.9183   -7.6909   -0.5921 H   0  0
   16.1739   -8.9179    2.2464 H   0  0
   15.1688   -9.6951    1.0628 H   0  0
   18.5515   -9.3175    2.2538 H   0  0
   20.5085  -10.4517    1.2807 H   0  0
   20.3368  -11.5759   -0.9263 H   0  0
   18.1885  -11.5648   -2.1579 H   0  0
   16.2129  -10.4428   -1.2042 H   0  0
   18.1451   -7.4466   -0.1695 H   0  0
  1  2  2  0
  1 20  1  0
  2  3  1  0
  2 19  1  0
  3  4  2  0
  3 21  1  0
  4  5  1  0
  4 22  1  0
  5  6  2  0
  5  7  1  0
  6  1  1  0
  6 23  1  0
  7  8  1  0
  8  9  1  0
  8 16  1  0
  8 24  1  0
  9 10  1  0
  9 25  1  0
  9 26  1  0
 10 11  2  0
 11 12  1  0
 11 27  1  0
 12 13  2  0
 12 28  1  0
 13 14  1  0
 13 29  1  0
 14 15  2  0
 14 30  1  0
 15 10  1  0
 15 31  1  0
 16 17  1  0
 16 18  2  0
 17 32  1  0
M  END
> <Name>
CHEMBL1956365

> <Clean Energy>
11.5949

> <chembl_id>
CHEMBL1956365

> <chembl_pref_name>
None

> <efficacy>
0.379867047

> <Forcefield>
MMFF

> <ForcefieldBase>
MMFF

> <ForcefieldFFML>
<?xml version="1.0" encoding="UTF-8"?>
<!DOCTYPE ffml SYSTEM "Ffml.dtd">
<ffml version="1.0">
<forcefield name="MMFF" derivedFrom="MMFF" base="MMFF">
<atomTypes>
<atomType
name="C100"
element="C"
mass="12.011"
annotation=""/>
<atomType
name="O101"
element="O"
mass="16"
annotation=""/>
<atomType
name="Cl102"
element="Cl"
mass="35.453"
annotation=""/>
<atomType
name="F103"
element="F"
mass="18.998"
annotation=""/>
<atomType
name="H104"
element="H"
mass="1.008"
annotation=""/>
</atomTypes>
<parameters>
</parameters>
</forcefield>
</ffml>

> <Initial Potential Energy>
111.95501

> <Initial RMS Gradient>
31.57987

> <Minimization Criteria>
STEEPD> Minimization exiting with gradient tolerance ( 3.0000000) satisfied.

> <CHARMm Energy>
59.8396

> <Potential Energy>
59.8396

> <RMS Gradient>
0.11398

> <Bond Energy>
3.45656

> <Angle Energy>
10.98743

> <STRBend>
0.21558

> <Dihedral Energy>
-1.45236

> <OOPLane>
0.00828

> <Van der Waals Energy>
36.33647

> <Electrostatic Energy>
10.28765

> <Hydrogen Bond Energy>
0

> <Solvation Free Energy>
0

> <HasGasteigerCharges>
true

> <REMARK99>
REMARK  99  MacroMolecule created from Mol2 file
REMARK  99  CHEMBL1956365
REMARK  99  PROTEIN
REMARK  99  GASTEIGER
REMARK  99
REMARK  99

$$$$
CHEMBL2260192
  SciTegic05292516403D

 69 74  0  0  0  0            999 V2000
   25.3200   -7.7959   -1.4967 C   0  0
   24.8904   -8.5850   -0.4210 C   0  0
   25.7951   -9.4335    0.2412 C   0  0
   26.6569   -7.7973   -1.9096 C   0  0
   27.5669   -8.6196   -1.2354 C   0  0
   27.1296   -9.4180   -0.1855 C   0  0
   28.2557  -10.1122    0.2038 N   0  0
   29.3085   -9.6879   -0.5787 C   0  0
   28.8999   -8.8051   -1.4660 N   0  0
   28.3121  -11.1159    1.2594 C   0  0
   27.5730  -12.3811    0.9239 C   0  0
   27.5207  -12.8863   -0.3812 C   0  0
   26.8397  -14.0695   -0.6488 C   0  0
   26.2322  -14.7948    0.3849 C   0  0
   26.3067  -14.2996    1.6935 C   0  0
   26.9715  -13.1055    1.9615 C   0  0
   25.5590  -16.0646    0.1071 C   0  0
   24.1799  -16.1838    0.3399 C   0  0
   23.5127  -17.3782    0.0634 C   0  0
   24.2122  -18.4754   -0.4587 C   0  0
   25.5822  -18.3758   -0.7007 C   0  0
   26.2445  -17.1811   -0.4088 C   0  0
   27.6865  -17.1295   -0.6920 C   0  0
   28.3609  -17.1261    0.4817 O   0  0
   28.1510  -17.1376   -1.8186 O   0  0
   29.7808  -17.1468    0.3286 C   0  0
   23.5428  -19.7647   -0.7581 C   0  0
   22.2055  -19.5617   -0.8328 O   0  0
   24.1368  -20.8173   -0.9269 O   0  0
   21.4561  -20.7305   -1.1577 C   0  0
   30.7037  -10.1772   -0.4446 C   0  0
   23.4857   -8.5887   -0.0118 C   0  0
   22.7314   -7.4721    0.2915 N   0  0
   22.7620   -9.6839    0.1347 N   0  0
   21.4964   -9.2634    0.4400 C   0  0
   21.4410   -7.8775    0.5426 C   0  0
   20.2600   -7.1914    0.8433 C   0  0
   19.1106   -7.9654    1.0339 C   0  0
   19.1437   -9.3575    0.9354 C   0  0
   20.3350  -10.0247    0.6398 C   0  0
   23.2042   -6.1102    0.3738 C   0  0
   24.6097   -7.1893   -2.0523 H   0  0
   25.4560  -10.1009    1.0295 H   0  0
   26.9878   -7.1941   -2.7472 H   0  0
   29.3584  -11.3506    1.4767 H   0  0
   27.8882  -10.6367    2.1508 H   0  0
   28.0016  -12.3665   -1.2091 H   0  0
   26.8041  -14.4325   -1.6755 H   0  0
   25.8662  -14.8586    2.5171 H   0  0
   27.0251  -12.7487    2.9885 H   0  0
   23.6133  -15.3377    0.7276 H   0  0
   22.4450  -17.4398    0.2585 H   0  0
   26.1364  -19.2135   -1.1172 H   0  0
   30.1214  -16.2465   -0.1926 H   0  0
   30.0975  -18.0480   -0.2058 H   0  0
   30.2282  -17.1597    1.3262 H   0  0
   21.5925  -21.4995   -0.3906 H   0  0
   21.7463  -21.1111   -2.1422 H   0  0
   20.3976  -20.4575   -1.1898 H   0  0
   31.3460   -9.7110   -1.1985 H   0  0
   30.7513  -11.2610   -0.5867 H   0  0
   31.1086   -9.9296    0.5414 H   0  0
   20.2185   -6.1103    0.9187 H   0  0
   18.1700   -7.4698    1.2593 H   0  0
   18.2292   -9.9235    1.0854 H   0  0
   20.3700  -11.1059    0.5542 H   0  0
   22.5948   -5.5551    1.0914 H   0  0
   23.1235   -5.6586   -0.6178 H   0  0
   24.2399   -6.1012    0.7216 H   0  0
  1  2  2  0
  1 42  1  0
  2  3  1  0
  2 32  1  0
  3  6  2  0
  3 43  1  0
  4  1  1  0
  4 44  1  0
  5  4  2  0
  5  6  1  0
  6  7  1  0
  7  8  1  0
  7 10  1  0
  8  9  2  0
  8 31  1  0
  9  5  1  0
 10 11  1  0
 10 45  1  0
 10 46  1  0
 11 12  2  0
 12 13  1  0
 12 47  1  0
 13 14  2  0
 13 48  1  0
 14 15  1  0
 14 17  1  0
 15 16  2  0
 15 49  1  0
 16 11  1  0
 16 50  1  0
 17 18  2  0
 18 19  1  0
 18 51  1  0
 19 20  2  0
 19 52  1  0
 20 21  1  0
 20 27  1  0
 21 22  2  0
 21 53  1  0
 22 17  1  0
 22 23  1  0
 23 24  1  0
 23 25  2  0
 24 26  1  0
 26 54  1  0
 26 55  1  0
 26 56  1  0
 27 28  1  0
 27 29  2  0
 28 30  1  0
 30 57  1  0
 30 58  1  0
 30 59  1  0
 31 60  1  0
 31 61  1  0
 31 62  1  0
 32 33  1  0
 33 36  1  0
 33 41  1  0
 34 32  2  0
 35 34  1  0
 35 36  2  0
 36 37  1  0
 37 38  2  0
 37 63  1  0
 38 39  1  0
 38 64  1  0
 39 40  2  0
 39 65  1  0
 40 35  1  0
 40 66  1  0
 41 67  1  0
 41 68  1  0
 41 69  1  0
M  END
> <Name>
CHEMBL2260192

> <Clean Energy>
90.289001

> <chembl_id>
CHEMBL2260192

> <chembl_pref_name>
None

> <efficacy>
0.028

> <Forcefield>
MMFF

> <ForcefieldBase>
MMFF

> <ForcefieldFFML>
<?xml version="1.0" encoding="UTF-8"?>
<!DOCTYPE ffml SYSTEM "Ffml.dtd">
<ffml version="1.0">
<forcefield name="MMFF" derivedFrom="MMFF" base="MMFF">
<atomTypes>
<atomType
name="C100"
element="C"
mass="12.011"
annotation=""/>
<atomType
name="N101"
element="N"
mass="14.007"
annotation=""/>
<atomType
name="O102"
element="O"
mass="16"
annotation=""/>
<atomType
name="H103"
element="H"
mass="1.008"
annotation=""/>
</atomTypes>
<parameters>
</parameters>
</forcefield>
</ffml>

> <Initial Potential Energy>
772.83021

> <Initial RMS Gradient>
279.85936

> <Minimization Criteria>
STEEPD> Minimization exiting with gradient tolerance ( 3.0000000) satisfied.

> <CHARMm Energy>
105.22694

> <Potential Energy>
105.22694

> <RMS Gradient>
0.05377

> <Bond Energy>
7.37022

> <Angle Energy>
11.97707

> <STRBend>
-0.5975

> <Dihedral Energy>
19.70666

> <OOPLane>
0.1091

> <Van der Waals Energy>
79.17797

> <Electrostatic Energy>
-12.51659

> <Hydrogen Bond Energy>
0

> <Solvation Free Energy>
0

> <HasGasteigerCharges>
true

> <REMARK99>
REMARK  99  MacroMolecule created from Mol2 file
REMARK  99  CHEMBL2260192
REMARK  99  PROTEIN
REMARK  99  GASTEIGER
REMARK  99
REMARK  99

$$$$
CHEMBL2424952
  SciTegic05292516403D

 55 58  0  0  0  0            999 V2000
    1.2095  -12.8433   -0.6632 S   0  0
    1.9261  -13.1702   -1.8751 O   0  0
    0.0059  -12.0368   -0.7038 O   0  0
    4.1131  -11.0597   -0.8468 C   0  0
    3.6447  -12.0003    0.0626 C   0  0
    4.5442  -12.9457    0.5502 C   0  0
    5.8601  -13.0031    0.2078 N   0  0
    6.2877  -12.0820   -0.6896 C   0  0
    5.4531  -11.0984   -1.2312 C   0  0
    7.6054  -12.0932   -1.1019 O   0  0
    8.4450  -13.1554   -0.6267 C   0  0
    9.4165  -13.4968   -1.7574 C   0  0
   10.4377  -14.5384   -1.3173 C   0  0
   11.1578  -14.0858   -0.1164 N   0  0
   10.2799  -13.7118    1.0142 C   0  0
    9.2413  -12.6788    0.5863 C   0  0
   12.4207  -14.5948    0.1872 C   0  0
   12.8973  -15.8130   -0.3249 C   0  0
   14.1653  -16.3040    0.0045 C   0  0
   14.9940  -15.5761    0.8512 C   0  0
   14.5607  -14.3567    1.3584 C   0  0
   13.2902  -13.8767    1.0258 C   0  0
    6.0158   -9.9332   -2.3698 Cl  0  0
    2.2566  -12.0286    0.4139 N   0  0
    0.8298  -14.3291    0.2531 C   0  0
   -0.2151  -14.2318    1.1907 C   0  0
   -0.6023  -15.3454    1.9314 C   0  0
    0.0279  -16.5670    1.7297 C   0  0
    1.0550  -16.6738    0.7911 C   0  0
    1.4777  -15.5617    0.0364 C   0  0
    2.5556  -15.7837   -0.9880 C   0  0
    3.4456  -10.3195   -1.2766 H   0  0
    4.2236  -13.7075    1.2560 H   0  0
    7.8739  -14.0618   -0.3891 H   0  0
    8.8584  -13.8610   -2.6285 H   0  0
    9.9304  -12.5852   -2.0914 H   0  0
    9.9423  -15.4966   -1.1171 H   0  0
   11.1353  -14.6878   -2.1506 H   0  0
    9.7792  -14.6134    1.3898 H   0  0
   10.8433  -13.2906    1.8535 H   0  0
    9.7369  -11.7275    0.3508 H   0  0
    8.5622  -12.4636    1.4197 H   0  0
   12.2674  -16.4168   -0.9721 H   0  0
   14.5058  -17.2537   -0.4011 H   0  0
   15.9792  -15.9545    1.1079 H   0  0
   15.2128  -13.7729    2.0030 H   0  0
   12.9807  -12.9072    1.4089 H   0  0
    1.8301  -11.1188    0.6112 H   0  0
   -0.7530  -13.2958    1.3425 H   0  0
   -1.4150  -15.2638    2.6496 H   0  0
   -0.2962  -17.4409    2.2913 H   0  0
    1.5287  -17.6438    0.6442 H   0  0
    2.1317  -15.7534   -1.9963 H   0  0
    3.0278  -16.7646   -0.8628 H   0  0
    3.3543  -15.0465   -0.8920 H   0  0
  1  3  2  0
  1 25  1  0
  2  1  2  0
  4  5  2  0
  4 32  1  0
  5  6  1  0
  5 24  1  0
  6  7  2  0
  6 33  1  0
  7  8  1  0
  8  9  2  0
  8 10  1  0
  9  4  1  0
  9 23  1  0
 10 11  1  0
 11 12  1  0
 11 16  1  0
 11 34  1  0
 12 13  1  0
 12 35  1  0
 12 36  1  0
 13 14  1  0
 13 37  1  0
 13 38  1  0
 14 15  1  0
 14 17  1  0
 15 16  1  0
 15 39  1  0
 15 40  1  0
 16 41  1  0
 16 42  1  0
 17 18  2  0
 18 19  1  0
 18 43  1  0
 19 20  2  0
 19 44  1  0
 20 21  1  0
 20 45  1  0
 21 22  2  0
 21 46  1  0
 22 17  1  0
 22 47  1  0
 24  1  1  0
 24 48  1  0
 25 26  2  0
 26 27  1  0
 26 49  1  0
 27 28  2  0
 27 50  1  0
 28 29  1  0
 28 51  1  0
 29 30  2  0
 29 52  1  0
 30 25  1  0
 30 31  1  0
 31 53  1  0
 31 54  1  0
 31 55  1  0
M  END
> <Name>
CHEMBL2424952

> <Clean Energy>
11.3679

> <chembl_id>
CHEMBL2424952

> <chembl_pref_name>
None

> <efficacy>
0.12

> <Forcefield>
MMFF

> <ForcefieldBase>
MMFF

> <ForcefieldFFML>
<?xml version="1.0" encoding="UTF-8"?>
<!DOCTYPE ffml SYSTEM "Ffml.dtd">
<ffml version="1.0">
<forcefield name="MMFF" derivedFrom="MMFF" base="MMFF">
<atomTypes>
<atomType
name="S100"
element="S"
mass="32.066"
annotation=""/>
<atomType
name="O101"
element="O"
mass="16"
annotation=""/>
<atomType
name="C102"
element="C"
mass="12.011"
annotation=""/>
<atomType
name="N103"
element="N"
mass="14.007"
annotation=""/>
<atomType
name="Cl104"
element="Cl"
mass="35.453"
annotation=""/>
<atomType
name="H105"
element="H"
mass="1.008"
annotation=""/>
</atomTypes>
<parameters>
</parameters>
</forcefield>
</ffml>

> <Initial Potential Energy>
145.42998

> <Initial RMS Gradient>
36.57119

> <Minimization Criteria>
CONJUG> Minimization exiting with gradient tolerance ( 0.0100000) satisfied.

> <CHARMm Energy>
21.4404

> <Potential Energy>
21.4404

> <RMS Gradient>
0.00889

> <Bond Energy>
5.70376

> <Angle Energy>
19.28644

> <STRBend>
1.69955

> <Dihedral Energy>
9.28542

> <OOPLane>
1.52881

> <Van der Waals Energy>
63.76938

> <Electrostatic Energy>
-79.83295

> <Hydrogen Bond Energy>
0

> <Solvation Free Energy>
0

> <HasGasteigerCharges>
true

> <REMARK99>
REMARK  99  MacroMolecule created from Mol2 file
REMARK  99  CHEMBL2424952
REMARK  99  PROTEIN
REMARK  99  GASTEIGER
REMARK  99
REMARK  99

$$$$
CHEMBL575687
  SciTegic05292516403D

 48 50  0  0  0  0            999 V2000
   -2.5137   -7.8289   -0.2202 C   0  0
   -1.5802   -8.1106   -1.2252 C   0  0
   -0.2339   -7.7782   -1.0572 C   0  0
    0.1901   -7.1872    0.1309 C   0  0
   -0.7409   -6.8715    1.1210 C   0  0
   -2.0866   -7.1930    0.9509 C   0  0
    1.4733   -6.8130    0.4079 O   0  0
    2.5365   -7.6016   -0.1676 C   0  0  1  0  0  0
    3.2390   -6.7396   -1.2200 C   0  0
    3.5108   -7.9335    0.9716 C   0  0
    4.3276   -9.1810    0.7293 C   0  0
    3.7851  -10.4453    1.0000 C   0  0
    4.5345  -11.6023    0.7736 C   0  0
    5.8316  -11.5079    0.2737 C   0  0
    6.3767  -10.2562   -0.0055 C   0  0
    5.6300   -9.0982    0.2199 C   0  0
    2.7207   -5.4883   -1.3305 O   0  0
    4.1938   -7.0952   -1.8962 O   0  0
   -3.9549   -8.2437   -0.3749 C   0  0
   -4.2288   -9.5504    0.3753 C   0  0
   -5.6602   -9.9899    0.2102 C   0  0
   -6.6625   -9.4296    1.0117 C   0  0
   -7.9877   -9.8117    0.8376 C   0  0
   -8.3172  -10.7527   -0.1373 C   0  0
   -7.3251  -11.3139   -0.9401 C   0  0
   -5.9994  -10.9337   -0.7680 C   0  0
   -1.8966   -8.5919   -2.1487 H   0  0
    0.4499   -7.9838   -1.8755 H   0  0
   -0.4170   -6.3838    2.0374 H   0  0
   -2.7991   -6.9529    1.7383 H   0  0
    2.1669   -8.5162   -0.6429 H   0  0
    4.1810   -7.0854    1.1665 H   0  0
    2.9550   -8.0698    1.9097 H   0  0
    2.7736  -10.5389    1.3911 H   0  0
    4.1011  -12.5764    0.9857 H   0  0
    6.4224  -12.4051    0.1000 H   0  0
    7.3875  -10.1804   -0.4014 H   0  0
    6.0738   -8.1322   -0.0157 H   0  0
    1.9438   -5.3982   -0.7327 H   0  0
   -4.6026   -7.4380   -0.0053 H   0  0
   -4.1979   -8.3555   -1.4397 H   0  0
   -3.5558  -10.3423    0.0205 H   0  0
   -4.0103   -9.4380    1.4455 H   0  0
   -6.4038   -8.6909    1.7667 H   0  0
   -8.7706   -9.3816    1.4583 H   0  0
   -9.3538  -11.0512   -0.2714 H   0  0
   -7.5961  -12.0476   -1.6958 H   0  0
   -5.2244  -11.3667   -1.3983 H   0  0
  1  2  2  0
  1 19  1  0
  2  3  1  0
  2 27  1  0
  3  4  2  0
  3 28  1  0
  4  5  1  0
  4  7  1  0
  5  6  2  0
  5 29  1  0
  6  1  1  0
  6 30  1  0
  7  8  1  0
  8  9  1  0
  8 10  1  0
  8 31  1  0
  9 17  1  0
  9 18  2  0
 10 11  1  0
 10 32  1  0
 10 33  1  0
 11 12  2  0
 12 13  1  0
 12 34  1  0
 13 14  2  0
 13 35  1  0
 14 15  1  0
 14 36  1  0
 15 16  2  0
 15 37  1  0
 16 11  1  0
 16 38  1  0
 17 39  1  0
 19 20  1  0
 19 40  1  0
 19 41  1  0
 20 42  1  0
 20 43  1  0
 21 20  1  0
 21 22  2  0
 22 23  1  0
 22 44  1  0
 23 24  2  0
 23 45  1  0
 24 25  1  0
 24 46  1  0
 25 26  2  0
 25 47  1  0
 26 21  1  0
 26 48  1  0
M  END
> <Name>
CHEMBL575687

> <Clean Energy>
17.935699

> <chembl_id>
CHEMBL575687

> <chembl_pref_name>
None

> <efficacy>
0.19

> <Forcefield>
MMFF

> <ForcefieldBase>
MMFF

> <ForcefieldFFML>
<?xml version="1.0" encoding="UTF-8"?>
<!DOCTYPE ffml SYSTEM "Ffml.dtd">
<ffml version="1.0">
<forcefield name="MMFF" derivedFrom="MMFF" base="MMFF">
<atomTypes>
<atomType
name="C100"
element="C"
mass="12.011"
annotation=""/>
<atomType
name="O101"
element="O"
mass="16"
annotation=""/>
<atomType
name="H102"
element="H"
mass="1.008"
annotation=""/>
</atomTypes>
<parameters>
</parameters>
</forcefield>
</ffml>

> <Initial Potential Energy>
149.48143

> <Initial RMS Gradient>
29.8013

> <Minimization Criteria>
CONJUG> Minimization exiting with gradient tolerance ( 0.0100000) satisfied.

> <CHARMm Energy>
69.86916

> <Potential Energy>
69.86916

> <RMS Gradient>
0.00974

> <Bond Energy>
5.22801

> <Angle Energy>
8.74683

> <STRBend>
0.16662

> <Dihedral Energy>
3.21567

> <OOPLane>
0.05486

> <Van der Waals Energy>
56.74926

> <Electrostatic Energy>
-4.29209

> <Hydrogen Bond Energy>
0

> <Solvation Free Energy>
0

> <HasGasteigerCharges>
true

> <REMARK99>
REMARK  99  MacroMolecule created from Mol2 file
REMARK  99  CHEMBL575687
REMARK  99  PROTEIN
REMARK  99  GASTEIGER
REMARK  99
REMARK  99

$$$$
CHEMBL2424954
  SciTegic05292516403D

 58 62  0  0  0  0            999 V2000
   -0.4368   -5.4008   -2.2221 C   0  0
   -0.9548   -4.5811   -0.0476 C   0  0
    0.8753   -5.5937   -1.7961 C   0  0
    0.3107   -4.7592    0.3922 N   0  0
   -1.3690   -4.8840   -1.3317 C   0  0
    1.2212   -5.2572   -0.4867 C   0  0
   15.1056   -3.5916   -0.3816 C   0  0
    9.2700   -5.0121   -2.3387 Cl  0  0
    3.4798   -6.4947   -0.2767 C   0  0
    4.7860   -5.2432    1.1950 C   0  0
   13.7732   -3.9457   -1.0185 C   0  0
    7.3127   -5.7190    2.3862 N   0  0
   11.8295   -5.3079   -0.8429 O   0  0
   10.8889   -5.6680    1.2802 N   0  0
    6.0417   -4.5855    2.2812 S   0  0
   20.0939   -4.5463   -0.5249 C   0  0
   17.8783   -4.1297   -1.3845 C   0  0
   15.2495   -5.8584    0.6319 C   0  0
   18.1422   -5.2503    0.7136 C   0  0
    6.5449   -3.3864    1.6484 O   0  0
   17.2802   -4.7312   -0.2649 C   0  0
    2.5932   -5.4697    0.0203 C   0  0
    8.4530   -5.5695    1.5179 C   0  0
   13.8918   -6.2113    0.0370 C   0  0
   19.2663   -4.0341   -1.5179 C   0  0
   19.5338   -5.1571    0.5915 C   0  0
    9.4613   -5.2850   -0.6470 C   0  0
    8.3194   -5.3725    0.1473 C   0  0
   13.0355   -4.9620   -0.1511 C   0  0
   10.7119   -5.4117   -0.0406 C   0  0
    4.7315   -6.3705    0.4005 C   0  0
    9.7490   -5.7443    2.0186 C   0  0
    3.3231   -4.3509    1.1073 S   0  0
    5.4247   -4.5757    3.5920 O   0  0
   15.8953   -4.8137   -0.1721 N   0  0
   -0.7384   -5.6477   -3.2383 H   0  0
   -1.6490   -4.1758    0.6837 H   0  0
    1.6150   -5.9878   -2.4850 H   0  0
   -2.3968   -4.7198   -1.6329 H   0  0
   15.6092   -2.8632   -1.0257 H   0  0
   14.9489   -3.0951    0.5846 H   0  0
    3.2333   -7.3165   -0.9390 H   0  0
   13.1599   -3.0452   -1.1435 H   0  0
   13.9256   -4.3518   -2.0273 H   0  0
    7.5377   -5.8399    3.3780 H   0  0
   21.1735   -4.4750   -0.6228 H   0  0
   17.2440   -3.7548   -2.1849 H   0  0
   15.8516   -6.7749    0.6450 H   0  0
   15.1386   -5.5146    1.6675 H   0  0
   17.7384   -5.7181    1.6065 H   0  0
   14.0256   -6.7123   -0.9311 H   0  0
   13.3768   -6.9352    0.6789 H   0  0
   19.6970   -3.5685   -2.4007 H   0  0
   20.1791   -5.5598    1.3682 H   0  0
    7.3486   -5.2650   -0.3211 H   0  0
   12.8407   -4.4804    0.8170 H   0  0
    5.5530   -7.0737    0.3159 H   0  0
    9.9186   -5.9514    3.0718 H   0  0
  1  3  2  0
  1 36  1  0
  2  5  2  0
  2 37  1  0
  3  6  1  0
  3 38  1  0
  4  2  1  0
  5  1  1  0
  5 39  1  0
  6  4  2  0
  7 11  1  0
  7 40  1  0
  7 41  1  0
  9 31  1  0
  9 42  1  0
 10 33  1  0
 11 43  1  0
 11 44  1  0
 12 15  1  0
 12 45  1  0
 13 29  1  0
 14 30  1  0
 15 10  1  0
 15 34  2  0
 16 25  1  0
 16 46  1  0
 17 21  1  0
 17 47  1  0
 18 35  1  0
 18 48  1  0
 18 49  1  0
 19 26  1  0
 19 50  1  0
 20 15  2  0
 21 19  2  0
 22  6  1  0
 22  9  2  0
 23 12  1  0
 23 32  1  0
 24 18  1  0
 24 51  1  0
 24 52  1  0
 25 17  2  0
 25 53  1  0
 26 16  2  0
 26 54  1  0
 27  8  1  0
 27 28  1  0
 28 23  2  0
 28 55  1  0
 29 11  1  0
 29 24  1  0
 29 56  1  0
 30 13  1  0
 30 27  2  0
 31 10  2  0
 31 57  1  0
 32 14  2  0
 32 58  1  0
 33 22  1  0
 35  7  1  0
 35 21  1  0
M  END
> <Name>
CHEMBL2424954

> <Clean Energy>
31.868099

> <chembl_id>
CHEMBL2424954

> <chembl_pref_name>
None

> <efficacy>
0.13

> <Forcefield>
MMFF

> <ForcefieldBase>
MMFF

> <ForcefieldFFML>
<?xml version="1.0" encoding="UTF-8"?>
<!DOCTYPE ffml SYSTEM "Ffml.dtd">
<ffml version="1.0">
<forcefield name="MMFF" derivedFrom="MMFF" base="MMFF">
<atomTypes>
<atomType
name="C100"
element="C"
mass="12.011"
annotation=""/>
<atomType
name="N101"
element="N"
mass="14.007"
annotation=""/>
<atomType
name="Cl102"
element="Cl"
mass="35.453"
annotation=""/>
<atomType
name="O103"
element="O"
mass="16"
annotation=""/>
<atomType
name="S104"
element="S"
mass="32.066"
annotation=""/>
<atomType
name="H105"
element="H"
mass="1.008"
annotation=""/>
</atomTypes>
<parameters>
</parameters>
</forcefield>
</ffml>

> <Initial Potential Energy>
126.20314

> <Initial RMS Gradient>
33.73675

> <Minimization Criteria>
STEEPD> Minimization exiting with gradient tolerance ( 3.0000000) satisfied.

> <CHARMm Energy>
27.96548

> <Potential Energy>
27.96548

> <RMS Gradient>
0.04234

> <Bond Energy>
5.41991

> <Angle Energy>
18.51189

> <STRBend>
1.24143

> <Dihedral Energy>
18.84374

> <OOPLane>
1.01481

> <Van der Waals Energy>
63.83284

> <Electrostatic Energy>
-80.89913

> <Hydrogen Bond Energy>
0

> <Solvation Free Energy>
0

> <HasGasteigerCharges>
true

> <REMARK99>
REMARK  99  MacroMolecule created from Mol2 file
REMARK  99  CHEMBL2424954
REMARK  99  PROTEIN
REMARK  99  GASTEIGER
REMARK  99
REMARK  99

$$$$
CHEMBL245674
  SciTegic05292516403D

 61 64  0  0  0  0            999 V2000
   -7.5043  -29.9532   -0.9950 C   0  0
   -6.1524  -29.8814   -0.6537 C   0  0
   -5.6215  -28.7289   -0.0528 C   0  0
   -6.4799  -27.6484    0.1986 C   0  0
   -7.8319  -27.7188   -0.1431 C   0  0
   -8.3410  -28.8701   -0.7397 C   0  0
   -4.2055  -28.6827    0.2914 C   0  0
   -3.2614  -29.5845    0.0931 N   0  0
   -2.1051  -29.0174    0.6167 C   0  0
   -2.4202  -27.7780    1.1369 C   0  0
   -3.7469  -27.5490    0.9108 O   0  0
   -1.6964  -26.7177    1.8572 C   0  0
   -0.8233  -29.7917    0.6354 C   0  0
    0.4409  -29.0504    0.1792 C   0  0
    1.5031  -30.0162    0.1533 O   0  0
    2.7619  -29.6311   -0.2172 C   0  0
    3.6421  -30.6871   -0.4793 C   0  0
    4.9662  -30.4537   -0.8799 C   0  0
    5.4499  -29.1477   -1.0132 C   0  0
    4.5714  -28.0899   -0.7160 C   0  0
    3.2367  -28.3278   -0.3308 C   0  0
    6.8662  -28.8708   -1.5010 C   0  0
    7.8562  -28.8539   -0.3983 N   0  0
    8.8905  -27.8109   -0.6199 C   0  0
    8.5110  -30.1813   -0.2496 C   0  0
    8.9242  -30.3646    1.2089 C   0  0
    9.8121  -31.1058    1.5955 O   0  0
    8.1349  -29.6438    2.0501 O   0  0
    8.3626  -26.3889   -0.5141 C   0  0
    8.5696  -25.5781   -1.5805 N   0  0
    8.1630  -24.2932   -1.4835 C   0  0
    7.5050  -23.7791   -0.3804 C   0  0
    7.2580  -24.6307    0.6891 C   0  0
    7.7010  -25.9501    0.6312 C   0  0
   -7.9033  -30.8518   -1.4591 H   0  0
   -5.5041  -30.7324   -0.8586 H   0  0
   -6.1008  -26.7402    0.6622 H   0  0
   -8.4859  -26.8745    0.0567 H   0  0
   -9.3920  -28.9242   -1.0063 H   0  0
   -2.3849  -26.0645    2.4023 H   0  0
   -1.1256  -26.1026    1.1549 H   0  0
   -0.9998  -27.1492    2.5824 H   0  0
   -0.6623  -30.1730    1.6523 H   0  0
   -0.9446  -30.6873    0.0114 H   0  0
    0.2993  -28.6279   -0.8223 H   0  0
    0.6793  -28.2499    0.8878 H   0  0
    3.2853  -31.7113   -0.3876 H   0  0
    5.6023  -31.3064   -1.1049 H   0  0
    4.9176  -27.0607   -0.8057 H   0  0
    2.5982  -27.4747   -0.1269 H   0  0
    7.1432  -29.5961   -2.2785 H   0  0
    6.8324  -27.9093   -2.0293 H   0  0
    9.6804  -27.8996    0.1372 H   0  0
    9.3710  -27.9533   -1.5970 H   0  0
    7.8184  -31.0015   -0.4626 H   0  0
    9.3849  -30.2808   -0.9024 H   0  0
    7.4498  -29.1866    1.4979 H   0  0
    8.3884  -23.6695   -2.3449 H   0  0
    7.1922  -22.7411   -0.3576 H   0  0
    6.7115  -24.2784    1.5604 H   0  0
    7.5028  -26.6259    1.4576 H   0  0
  1  2  2  0
  1 35  1  0
  2  3  1  0
  2 36  1  0
  3  4  2  0
  3  7  1  0
  4  5  1  0
  4 37  1  0
  5  6  2  0
  5 38  1  0
  6  1  1  0
  6 39  1  0
  7  8  2  0
  8  9  1  0
  9 10  2  0
  9 13  1  0
 10 11  1  0
 10 12  1  0
 11  7  1  0
 12 40  1  0
 12 41  1  0
 12 42  1  0
 13 14  1  0
 13 43  1  0
 13 44  1  0
 14 15  1  0
 14 45  1  0
 14 46  1  0
 15 16  1  0
 16 17  2  0
 17 18  1  0
 17 47  1  0
 18 19  2  0
 18 48  1  0
 19 20  1  0
 19 22  1  0
 20 21  2  0
 20 49  1  0
 21 16  1  0
 21 50  1  0
 22 23  1  0
 22 51  1  0
 22 52  1  0
 23 24  1  0
 23 25  1  0
 24 29  1  0
 24 53  1  0
 24 54  1  0
 25 26  1  0
 25 55  1  0
 25 56  1  0
 26 27  2  0
 26 28  1  0
 28 57  1  0
 29 30  2  0
 30 31  1  0
 31 32  2  0
 31 58  1  0
 32 33  1  0
 32 59  1  0
 33 34  2  0
 33 60  1  0
 34 29  1  0
 34 61  1  0
M  END
> <Name>
CHEMBL245674

> <Clean Energy>
37.2164

> <chembl_id>
CHEMBL245674

> <chembl_pref_name>
None

> <efficacy>
0.2

> <Forcefield>
MMFF

> <ForcefieldBase>
MMFF

> <ForcefieldFFML>
<?xml version="1.0" encoding="UTF-8"?>
<!DOCTYPE ffml SYSTEM "Ffml.dtd">
<ffml version="1.0">
<forcefield name="MMFF" derivedFrom="MMFF" base="MMFF">
<atomTypes>
<atomType
name="C100"
element="C"
mass="12.011"
annotation=""/>
<atomType
name="N101"
element="N"
mass="14.007"
annotation=""/>
<atomType
name="O102"
element="O"
mass="16"
annotation=""/>
<atomType
name="H103"
element="H"
mass="1.008"
annotation=""/>
</atomTypes>
<parameters>
</parameters>
</forcefield>
</ffml>

> <Initial Potential Energy>
241.83681

> <Initial RMS Gradient>
31.84473

> <Minimization Criteria>
STEEPD> Minimization exiting with gradient tolerance ( 3.0000000) satisfied.

> <CHARMm Energy>
107.61375

> <Potential Energy>
107.61375

> <RMS Gradient>
0.03883

> <Bond Energy>
7.44619

> <Angle Energy>
14.50065

> <STRBend>
1.11847

> <Dihedral Energy>
1.0885

> <OOPLane>
0.12482

> <Van der Waals Energy>
60.8813

> <Electrostatic Energy>
22.45383

> <Hydrogen Bond Energy>
0

> <Solvation Free Energy>
0

> <HasGasteigerCharges>
true

> <REMARK99>
REMARK  99  MacroMolecule created from Mol2 file
REMARK  99  CHEMBL245674
REMARK  99  PROTEIN
REMARK  99  GASTEIGER
REMARK  99
REMARK  99

$$$$
CHEMBL460073
  SciTegic05292516403D

 61 64  0  0  0  0            999 V2000
    2.8764    0.6557   -0.2625 C   0  0
    2.6414   -0.6632   -0.6202 C   0  0
    3.6604   -1.5992   -0.4620 C   0  0
    4.0436    1.1390    0.2148 N   0  0
    5.0084    0.2022    0.3437 C   0  0
    4.8882   -1.1518    0.0524 C   0  0
    6.1314   -1.7707    0.3694 C   0  0
    6.9411   -0.7918    0.9471 C   0  0
    6.2996    0.4256    0.7738 N   0  0
    8.2489   -0.9394    1.6485 C   0  0
    6.8401    1.7560    1.0628 C   0  0
    8.1369    2.0534    0.3313 C   0  0
    9.3390    2.1501    1.0663 C   0  0
   10.5777    2.3719    0.4453 C   0  0
   10.6192    2.5534   -0.9312 C   0  0
    9.4362    2.4913   -1.6759 C   0  0
    8.2064    2.2397   -1.0555 C   0  0
    6.4513   -3.1838    0.1894 C   0  0
    5.6303   -4.0778    0.3806 O   0  0
    7.8139   -3.5432   -0.2756 C   0  0
    8.4446   -4.6547    0.2881 C   0  0
    9.7425   -4.9939   -0.1028 C   0  0
   10.4082   -4.2337   -1.0664 C   0  0
    9.7593   -3.1432   -1.6517 C   0  0
    8.4652   -2.7951   -1.2632 C   0  0
   11.6450    2.3743    1.2980 O   0  0
   12.9826    2.5168    0.7770 C   0  0  2  0  0  0
   13.9259    1.7989    1.7585 C   0  0
   13.3480    3.9913    0.6979 C   0  0
   13.2497    0.9487    2.5796 O   0  0
   15.1428    1.9386    1.8026 O   0  0
   11.6773   -4.4503   -1.5244 O   0  0
   12.4241   -5.4700   -0.8747 C   0  0
    1.8069    1.5131   -0.4374 O   0  0
    2.0433    2.8329    0.0349 C   0  0
    6.8079    2.1895   -2.0637 Cl  0  0
    1.6722   -0.9630   -1.0048 H   0  0
    3.4981   -2.6450   -0.7080 H   0  0
    8.3330   -0.2401    2.4854 H   0  0
    9.0826   -0.7786    0.9595 H   0  0
    8.3508   -1.9414    2.0774 H   0  0
    6.0934    2.5162    0.8095 H   0  0
    6.9761    1.7988    2.1502 H   0  0
    9.3163    2.0304    2.1492 H   0  0
   11.5427    2.7537   -1.4651 H   0  0
    9.4803    2.6412   -2.7532 H   0  0
    7.9347   -5.2495    1.0427 H   0  0
   10.2007   -5.8586    0.3639 H   0  0
   10.2701   -2.5609   -2.4153 H   0  0
    7.9790   -1.9445   -1.7351 H   0  0
   13.1004    1.9988   -0.1808 H   0  0
   14.3714    4.1286    0.3345 H   0  0
   13.2710    4.4647    1.6834 H   0  0
   12.6694    4.5334    0.0321 H   0  0
   12.2847    1.0296    2.4163 H   0  0
   13.4274   -5.4793   -1.3116 H   0  0
   11.9780   -6.4550   -1.0471 H   0  0
   12.5301   -5.2651    0.1960 H   0  0
    1.1282    3.4128   -0.1189 H   0  0
    2.8450    3.3180   -0.5327 H   0  0
    2.2650    2.8374    1.1078 H   0  0
  1  2  2  0
  1 34  1  0
  2  3  1  0
  2 37  1  0
  3  6  2  0
  3 38  1  0
  4  1  1  0
  5  4  2  0
  5  6  1  0
  6  7  1  0
  7  8  2  0
  7 18  1  0
  8  9  1  0
  8 10  1  0
  9  5  1  0
  9 11  1  0
 10 39  1  0
 10 40  1  0
 10 41  1  0
 11 12  1  0
 11 42  1  0
 11 43  1  0
 12 13  2  0
 13 14  1  0
 13 44  1  0
 14 15  2  0
 14 26  1  0
 15 16  1  0
 15 45  1  0
 16 17  2  0
 16 46  1  0
 17 12  1  0
 17 36  1  0
 18 19  2  0
 18 20  1  0
 20 21  2  0
 21 22  1  0
 21 47  1  0
 22 23  2  0
 22 48  1  0
 23 24  1  0
 23 32  1  0
 24 25  2  0
 24 49  1  0
 25 20  1  0
 25 50  1  0
 26 27  1  0
 27 28  1  0
 27 29  1  0
 27 51  1  0
 28 30  1  0
 28 31  2  0
 29 52  1  0
 29 53  1  0
 29 54  1  0
 30 55  1  0
 32 33  1  0
 33 56  1  0
 33 57  1  0
 33 58  1  0
 34 35  1  0
 35 59  1  0
 35 60  1  0
 35 61  1  0
M  END
> <Name>
CHEMBL460073

> <Clean Energy>
89.974899

> <chembl_id>
CHEMBL460073

> <chembl_pref_name>
None

> <efficacy>
0.23

> <Forcefield>
MMFF

> <ForcefieldBase>
MMFF

> <ForcefieldFFML>
<?xml version="1.0" encoding="UTF-8"?>
<!DOCTYPE ffml SYSTEM "Ffml.dtd">
<ffml version="1.0">
<forcefield name="MMFF" derivedFrom="MMFF" base="MMFF">
<atomTypes>
<atomType
name="C100"
element="C"
mass="12.011"
annotation=""/>
<atomType
name="N101"
element="N"
mass="14.007"
annotation=""/>
<atomType
name="O102"
element="O"
mass="16"
annotation=""/>
<atomType
name="Cl103"
element="Cl"
mass="35.453"
annotation=""/>
<atomType
name="H104"
element="H"
mass="1.008"
annotation=""/>
</atomTypes>
<parameters>
</parameters>
</forcefield>
</ffml>

> <Initial Potential Energy>
306.17892

> <Initial RMS Gradient>
36.0655

> <Minimization Criteria>
STEEPD> Minimization exiting with gradient tolerance ( 3.0000000) satisfied.

> <CHARMm Energy>
98.45841

> <Potential Energy>
98.45841

> <RMS Gradient>
0.03403

> <Bond Energy>
6.65377

> <Angle Energy>
23.53958

> <STRBend>
1.102

> <Dihedral Energy>
7.83415

> <OOPLane>
0.06496

> <Van der Waals Energy>
71.07632

> <Electrostatic Energy>
-11.81237

> <Hydrogen Bond Energy>
0

> <Solvation Free Energy>
0

> <HasGasteigerCharges>
true

> <REMARK99>
REMARK  99  MacroMolecule created from Mol2 file
REMARK  99  CHEMBL460073
REMARK  99  PROTEIN
REMARK  99  GASTEIGER
REMARK  99
REMARK  99

$$$$
CHEMBL2338484
  SciTegic05292516403D

 38 40  0  0  0  0            999 V2000
   24.8860  -29.1422    0.3572 C   0  0
   23.9976  -29.8710   -0.4361 C   0  0
   22.9448  -29.2216   -1.0908 C   0  0
   22.7210  -27.8615   -0.8814 C   0  0
   23.5651  -27.1273   -0.0491 C   0  0
   24.6490  -27.7737    0.5647 C   0  0
   22.3090  -24.7190   -0.5084 S   0  0
   23.2996  -25.7827    0.3431 N   0  0
   20.6459  -25.1053   -0.0242 C   0  0
   19.5655  -24.5528   -0.7237 C   0  0
   18.2554  -24.8757   -0.3472 C   0  0
   18.0279  -25.7329    0.7265 C   0  0
   19.0978  -26.2708    1.4375 C   0  0
   20.4082  -25.9548    1.0675 C   0  0
   24.1493  -31.2387   -0.5529 O   0  0
   22.3821  -31.8227    1.0072 C   0  0
   23.0274  -31.9622   -0.2202 C   0  0
   22.5040  -32.8451   -1.1581 C   0  0
   21.3152  -33.5000   -0.8597 C   0  0
   20.7100  -33.2614    0.3680 C   0  0
   21.2237  -32.4447    1.3193 N   0  0
   20.5998  -34.5670   -1.9980 Cl  0  0
   22.4645  -25.0013   -1.9175 O   0  0
   22.5993  -23.4196    0.0572 O   0  0
   16.4141  -26.1174    1.1835 Cl  0  0
   19.7314  -23.4372   -2.0322 Cl  0  0
   26.0039  -29.7784    0.9950 C   0  0
   26.9119  -30.2777    1.5195 N   0  0
   22.2712  -29.7713   -1.7448 H   0  0
   21.8698  -27.4117   -1.3835 H   0  0
   25.3118  -27.2161    1.2245 H   0  0
   24.0008  -25.2793    0.8867 H   0  0
   17.4127  -24.4547   -0.8893 H   0  0
   18.9186  -26.9320    2.2828 H   0  0
   21.2243  -26.3745    1.6496 H   0  0
   22.7750  -31.1769    1.7869 H   0  0
   22.9985  -32.9906   -2.1131 H   0  0
   19.7644  -33.7237    0.6313 H   0  0
  1  2  1  0
  1  6  2  0
  1 27  1  0
  2  3  2  0
  2 15  1  0
  3  4  1  0
  3 29  1  0
  4  5  2  0
  4 30  1  0
  5  6  1  0
  5  8  1  0
  6 31  1  0
  7  8  1  0
  7  9  1  0
  7 23  2  0
  7 24  2  0
  8 32  1  0
  9 10  1  0
  9 14  2  0
 10 11  2  0
 10 26  1  0
 11 12  1  0
 11 33  1  0
 12 13  2  0
 12 25  1  0
 13 14  1  0
 13 34  1  0
 14 35  1  0
 15 17  1  0
 16 17  1  0
 16 21  2  0
 16 36  1  0
 17 18  2  0
 18 19  1  0
 18 37  1  0
 19 20  2  0
 19 22  1  0
 20 21  1  0
 20 38  1  0
 27 28  3  0
M  END
> <Name>
CHEMBL2338484

> <Clean Energy>
57.8335

> <chembl_id>
CHEMBL2338484

> <chembl_pref_name>
None

> <efficacy>
0.13

> <Forcefield>
MMFF

> <ForcefieldBase>
MMFF

> <ForcefieldFFML>
<?xml version="1.0" encoding="UTF-8"?>
<!DOCTYPE ffml SYSTEM "Ffml.dtd">
<ffml version="1.0">
<forcefield name="MMFF" derivedFrom="MMFF" base="MMFF">
<atomTypes>
<atomType
name="C100"
element="C"
mass="12.011"
annotation=""/>
<atomType
name="S101"
element="S"
mass="32.066"
annotation=""/>
<atomType
name="N102"
element="N"
mass="14.007"
annotation=""/>
<atomType
name="O103"
element="O"
mass="16"
annotation=""/>
<atomType
name="Cl104"
element="Cl"
mass="35.453"
annotation=""/>
<atomType
name="H105"
element="H"
mass="1.008"
annotation=""/>
</atomTypes>
<parameters>
</parameters>
</forcefield>
</ffml>

> <Initial Potential Energy>
4126.30485

> <Initial RMS Gradient>
4680.12394

> <Minimization Criteria>
STEEPD> Minimization exiting with gradient tolerance ( 3.0000000) satisfied.

> <CHARMm Energy>
20.80547

> <Potential Energy>
20.80547

> <RMS Gradient>
0.08026

> <Bond Energy>
3.88916

> <Angle Energy>
13.06146

> <STRBend>
0.77477

> <Dihedral Energy>
7.41902

> <OOPLane>
0.12862

> <Van der Waals Energy>
53.52746

> <Electrostatic Energy>
-57.99503

> <Hydrogen Bond Energy>
0

> <Solvation Free Energy>
0

> <HasGasteigerCharges>
true

> <REMARK99>
REMARK  99  MacroMolecule created from Mol2 file
REMARK  99  CHEMBL2338484
REMARK  99  PROTEIN
REMARK  99  GASTEIGER
REMARK  99
REMARK  99

$$$$
CHEMBL5182467
  SciTegic05292516403D

 70 70  0  0  0  0            999 V2000
   -9.0959   -0.3629    0.9800 C   0  0
   -8.8133   -1.7029    1.2456 C   0  0
   -7.6643   -2.2899    0.7197 C   0  0
   -6.7961   -1.5418   -0.0835 C   0  0
   -7.0935   -0.1929   -0.3468 C   0  0
   -8.2374    0.4028    0.1886 C   0  0
   -8.6287    1.7027    0.0216 O   0  0
   -5.5397   -2.1645   -0.6429 C   0  0
   -4.2915   -1.6944    0.1083 C   0  0
   -3.0215   -2.3186   -0.4719 C   0  0
   -1.7744   -1.7924    0.2405 C   0  0
   -0.4983   -2.3959   -0.3474 C   0  0
    0.7470   -1.8255    0.3335 C   0  0
    2.0265   -2.4207   -0.2552 C   0  0
    3.2716   -1.8165    0.3965 C   0  0
    4.5497   -2.4102   -0.1973 C   0  0
    5.7980   -1.7908    0.4327 C   0  0
    7.0734   -2.3897   -0.1622 C   0  0
    8.3240   -1.7655    0.4585 C   0  0
    9.5982   -2.3657   -0.1380 C   0  0
   10.8488   -1.7414    0.4797 C   0  0
   12.1167   -2.3391   -0.1083 C   0  0
   -7.7623    2.5756   -0.6870 C   0  0
   -6.5195    3.0360    0.0713 C   0  0
   -5.6765    3.6804   -0.7918 O   0  0
   -6.2996    2.8720    1.2629 O   0  0
   -4.4673    4.1504   -0.1829 C   0  0
   -3.6203    4.8083   -1.2543 C   0  0
   -9.9895    0.0918    1.4006 H   0  0
   -9.4870   -2.2850    1.8685 H   0  0
   -7.4502   -3.3324    0.9429 H   0  0
   -6.4015    0.3640   -0.9689 H   0  0
   -5.6132   -3.2583   -0.5976 H   0  0
   -5.4628   -1.9087   -1.7072 H   0  0
   -4.2136   -0.6010    0.0572 H   0  0
   -4.3771   -1.9545    1.1710 H   0  0
   -3.0697   -3.4101   -0.3774 H   0  0
   -2.9557   -2.0885   -1.5423 H   0  0
   -1.7372   -0.6998    0.1514 H   0  0
   -1.8340   -2.0273    1.3103 H   0  0
   -0.5185   -3.4860   -0.2294 H   0  0
   -0.4547   -2.1874   -1.4234 H   0  0
    0.7612   -0.7351    0.2154 H   0  0
    0.7066   -2.0331    1.4096 H   0  0
    2.0265   -3.5081   -0.1109 H   0  0
    2.0537   -2.2377   -1.3363 H   0  0
    3.2706   -0.7291    0.2527 H   0  0
    3.2482   -1.9996    1.4776 H   0  0
    4.5573   -3.4956   -0.0389 H   0  0
    4.5647   -2.2418   -1.2809 H   0  0
    5.7913   -0.7059    0.2707 H   0  0
    5.7844   -1.9563    1.5168 H   0  0
    7.0824   -3.4738    0.0038 H   0  0
    7.0828   -2.2293   -1.2472 H   0  0
    8.3149   -0.6815    0.2912 H   0  0
    8.3149   -1.9253    1.5437 H   0  0
    9.6068   -3.4497    0.0297 H   0  0
    9.6059   -2.2070   -1.2234 H   0  0
   10.8480   -0.6586    0.3090 H   0  0
   10.8464   -1.8985    1.5644 H   0  0
   12.9992   -1.8795    0.3475 H   0  0
   12.1653   -2.1711   -1.1889 H   0  0
   12.1628   -3.4173    0.0742 H   0  0
   -7.4854    2.1475   -1.6574 H   0  0
   -8.3436    3.4811   -0.8965 H   0  0
   -4.7075    4.8795    0.5989 H   0  0
   -3.9198    3.3070    0.2527 H   0  0
   -2.6852    5.1877   -0.8330 H   0  0
   -4.1617    5.6386   -1.7195 H   0  0
   -3.3851    4.0951   -2.0511 H   0  0
  1  2  2  0
  1 29  1  0
  2  3  1  0
  2 30  1  0
  3  4  2  0
  3 31  1  0
  4  5  1  0
  4  8  1  0
  5  6  2  0
  5 32  1  0
  6  1  1  0
  6  7  1  0
  7 23  1  0
  8  9  1  0
  8 33  1  0
  8 34  1  0
  9 10  1  0
  9 35  1  0
  9 36  1  0
 10 11  1  0
 10 37  1  0
 10 38  1  0
 11 12  1  0
 11 39  1  0
 11 40  1  0
 12 13  1  0
 12 41  1  0
 12 42  1  0
 13 14  1  0
 13 43  1  0
 13 44  1  0
 14 15  1  0
 14 45  1  0
 14 46  1  0
 15 16  1  0
 15 47  1  0
 15 48  1  0
 16 17  1  0
 16 49  1  0
 16 50  1  0
 17 18  1  0
 17 51  1  0
 17 52  1  0
 18 19  1  0
 18 53  1  0
 18 54  1  0
 19 20  1  0
 19 55  1  0
 19 56  1  0
 20 21  1  0
 20 57  1  0
 20 58  1  0
 21 22  1  0
 21 59  1  0
 21 60  1  0
 22 61  1  0
 22 62  1  0
 22 63  1  0
 23 24  1  0
 23 64  1  0
 23 65  1  0
 24 25  1  0
 24 26  2  0
 25 27  1  0
 27 28  1  0
 27 66  1  0
 27 67  1  0
 28 68  1  0
 28 69  1  0
 28 70  1  0
M  END
> <Name>
CHEMBL5182467

> <Clean Energy>
4.45921

> <chembl_id>
CHEMBL5182467

> <chembl_pref_name>
None

> <efficacy>
0.3

> <Forcefield>
MMFF

> <ForcefieldBase>
MMFF

> <ForcefieldFFML>
<?xml version="1.0" encoding="UTF-8"?>
<!DOCTYPE ffml SYSTEM "Ffml.dtd">
<ffml version="1.0">
<forcefield name="MMFF" derivedFrom="MMFF" base="MMFF">
<atomTypes>
<atomType
name="C100"
element="C"
mass="12.011"
annotation=""/>
<atomType
name="O101"
element="O"
mass="16"
annotation=""/>
<atomType
name="H102"
element="H"
mass="1.008"
annotation=""/>
</atomTypes>
<parameters>
</parameters>
</forcefield>
</ffml>

> <Initial Potential Energy>
65.50464

> <Initial RMS Gradient>
16.00988

> <Minimization Criteria>
STEEPD> Minimization exiting with gradient tolerance ( 3.0000000) satisfied.

> <CHARMm Energy>
35.20066

> <Potential Energy>
35.20066

> <RMS Gradient>
0.07514

> <Bond Energy>
4.02836

> <Angle Energy>
11.91196

> <STRBend>
-0.33285

> <Dihedral Energy>
-28.22733

> <OOPLane>
0.00474

> <Van der Waals Energy>
41.20286

> <Electrostatic Energy>
6.61292

> <Hydrogen Bond Energy>
0

> <Solvation Free Energy>
0

> <HasGasteigerCharges>
true

> <REMARK99>
REMARK  99  MacroMolecule created from Mol2 file
REMARK  99  CHEMBL5182467
REMARK  99  PROTEIN
REMARK  99  GASTEIGER
REMARK  99
REMARK  99

$$$$
CHEMBL370054
  SciTegic05292516403D

 36 37  0  0  0  0            999 V2000
   13.1630  -10.4745   -1.2039 C   0  0
   12.2374  -11.5781   -0.6729 C   0  0  1  0  0  0
   10.9567  -11.3233   -1.2941 O   0  0
   12.7386  -12.9564   -1.1211 C   0  0
   14.3332  -10.3240   -0.8859 O   0  0
    9.8045  -11.6231   -0.6269 C   0  0
   12.5563   -9.6394   -2.0880 O   0  0
   13.8702  -13.5189   -0.2940 C   0  0
    7.2653  -12.0939    0.5099 C   0  0
    8.6411  -11.2055   -1.2797 C   0  0
    9.6954  -12.2894    0.5909 C   0  0
    7.3831  -11.4360   -0.7190 C   0  0
    8.4326  -12.5199    1.1571 C   0  0
    5.2483  -11.1018    1.3885 O   0  0
    5.9022  -12.3348    1.1079 C   0  0
   13.6124  -14.2224    0.8896 C   0  0
   15.2012  -13.3511   -0.7031 C   0  0
   16.2513  -13.8787    0.0507 C   0  0
   14.6647  -14.7502    1.6434 C   0  0
   15.9837  -14.5811    1.2235 C   0  0
   12.1901  -11.4431    0.4131 H   0  0
   11.9117  -13.6790   -1.1031 H   0  0
   13.0416  -12.9206   -2.1768 H   0  0
   11.6176   -9.9083   -2.1974 H   0  0
    8.7063  -10.6934   -2.2370 H   0  0
   10.5632  -12.6516    1.1312 H   0  0
    6.4908  -11.0981   -1.2448 H   0  0
    8.3705  -13.0401    2.1116 H   0  0
    5.9469  -10.4443    1.5537 H   0  0
    5.9766  -12.8963    2.0448 H   0  0
    5.2815  -12.9152    0.4176 H   0  0
   12.5920  -14.3771    1.2306 H   0  0
   15.4270  -12.7929   -1.6094 H   0  0
   17.2801  -13.7381   -0.2760 H   0  0
   14.4512  -15.2957    2.5588 H   0  0
   16.8064  -14.9931    1.8057 H   0  0
  2  1  1  0
  2 21  1  0
  3  2  1  0
  4  2  1  0
  4 22  1  0
  4 23  1  0
  5  1  2  0
  6  3  1  0
  7  1  1  0
  7 24  1  0
  8  4  1  0
  9 12  2  0
  9 13  1  0
 10  6  2  0
 10 25  1  0
 11  6  1  0
 11 26  1  0
 12 10  1  0
 12 27  1  0
 13 11  2  0
 13 28  1  0
 14 15  1  0
 14 29  1  0
 15  9  1  0
 15 30  1  0
 15 31  1  0
 16  8  1  0
 16 32  1  0
 17  8  2  0
 17 33  1  0
 18 17  1  0
 18 34  1  0
 19 16  2  0
 19 35  1  0
 20 18  2  0
 20 19  1  0
 20 36  1  0
M  END
> <Name>
CHEMBL370054

> <Clean Energy>
17.4491

> <chembl_id>
CHEMBL370054

> <chembl_pref_name>
None

> <efficacy>
0.097

> <Forcefield>
MMFF

> <ForcefieldBase>
MMFF

> <ForcefieldFFML>
<?xml version="1.0" encoding="UTF-8"?>
<!DOCTYPE ffml SYSTEM "Ffml.dtd">
<ffml version="1.0">
<forcefield name="MMFF" derivedFrom="MMFF" base="MMFF">
<atomTypes>
<atomType
name="C100"
element="C"
mass="12.011"
annotation=""/>
<atomType
name="O101"
element="O"
mass="16"
annotation=""/>
<atomType
name="H102"
element="H"
mass="1.008"
annotation=""/>
</atomTypes>
<parameters>
</parameters>
</forcefield>
</ffml>

> <Initial Potential Energy>
115.3214

> <Initial RMS Gradient>
31.22114

> <Minimization Criteria>
CONJUG> Minimization exiting with gradient tolerance ( 0.0100000) satisfied.

> <CHARMm Energy>
50.16677

> <Potential Energy>
50.16677

> <RMS Gradient>
0.00786

> <Bond Energy>
4.15703

> <Angle Energy>
11.03755

> <STRBend>
0.27523

> <Dihedral Energy>
1.30513

> <OOPLane>
0.00228

> <Van der Waals Energy>
40.58864

> <Electrostatic Energy>
-7.19909

> <Hydrogen Bond Energy>
0

> <Solvation Free Energy>
0

> <HasGasteigerCharges>
true

> <REMARK99>
REMARK  99  MacroMolecule created from Mol2 file
REMARK  99  CHEMBL370054
REMARK  99  PROTEIN
REMARK  99  GASTEIGER
REMARK  99
REMARK  99

$$$$
CHEMBL4059763
  SciTegic05292516403D

 49 52  0  0  0  0            999 V2000
   15.0881  -22.4356   -1.0839 N   0  0
   14.4154  -22.8269   -2.1986 C   0  0
   14.4825  -22.6510    0.1199 C   0  0
   12.8745  -23.5322   -1.7604 S   0  0
   13.1676  -23.3224   -0.0749 C   0  0
   14.8389  -22.7152   -3.3388 O   0  0
   14.9762  -22.3417    1.1937 O   0  0
   12.3971  -23.6693    0.9659 C   0  0
   11.0974  -24.3586    0.9483 C   0  0
    8.6259  -25.6975    1.0937 C   0  0
    5.5913  -26.3790   -0.3250 C   0  0
   10.9135  -25.5849    0.2988 C   0  0
   10.0371  -23.8280    1.6968 C   0  0
    6.2731  -25.7087    0.8730 C   0  0
    9.6841  -26.2503    0.3742 C   0  0
    8.8080  -24.4953    1.7733 C   0  0
    7.4764  -26.4351    1.1650 O   0  0
    4.4256  -25.6129   -0.8005 N   0  0
    4.7523  -24.4831   -1.6772 C   0  0
    3.1288  -25.8480   -0.3688 C   0  0
    2.0252  -25.1974   -0.9521 C   0  0
    1.5202  -26.9875    1.0980 C   0  0
    2.8325  -26.7480    0.6657 C   0  0
    0.4406  -26.3312    0.5022 C   0  0
    0.6941  -25.4217   -0.5412 C   0  0
   -0.3881  -24.7629   -1.1495 C   0  0
   -1.6981  -25.0015   -0.7307 C   0  0
   -1.9445  -25.8995    0.3032 C   0  0
   -0.8812  -26.5606    0.9180 C   0  0
   16.0059  -22.0107   -1.1481 H   0  0
   12.7417  -23.4249    1.9715 H   0  0
    6.3214  -26.4668   -1.1417 H   0  0
    5.3400  -27.4219   -0.0977 H   0  0
   11.7266  -26.0513   -0.2524 H   0  0
   10.1602  -22.8951    2.2432 H   0  0
    6.4571  -24.6506    0.6493 H   0  0
    5.6290  -25.7528    1.7578 H   0  0
    9.5536  -27.2068   -0.1252 H   0  0
    8.0156  -24.0792    2.3882 H   0  0
    4.3067  -24.6231   -2.6679 H   0  0
    5.8332  -24.3781   -1.8246 H   0  0
    4.3948  -23.5414   -1.2462 H   0  0
    2.1870  -24.4977   -1.7676 H   0  0
    1.3555  -27.6960    1.9066 H   0  0
    3.6195  -27.2902    1.1799 H   0  0
   -0.2131  -24.0578   -1.9588 H   0  0
   -2.5236  -24.4857   -1.2130 H   0  0
   -2.9629  -26.0875    0.6316 H   0  0
   -1.0873  -27.2588    1.7255 H   0  0
  1 30  1  0
  2  1  1  0
  3  1  1  0
  4  2  1  0
  5  3  1  0
  5  4  1  0
  6  2  2  0
  7  3  2  0
  8  5  2  0
  8 31  1  0
  9  8  1  0
 10 15  2  0
 10 16  1  0
 11 14  1  0
 11 18  1  0
 11 32  1  0
 11 33  1  0
 12  9  2  0
 12 34  1  0
 13  9  1  0
 13 35  1  0
 14 17  1  0
 14 36  1  0
 14 37  1  0
 15 12  1  0
 15 38  1  0
 16 13  2  0
 16 39  1  0
 17 10  1  0
 18 19  1  0
 18 20  1  0
 19 40  1  0
 19 41  1  0
 19 42  1  0
 20 21  2  0
 21 25  1  0
 21 43  1  0
 22 23  2  0
 22 44  1  0
 23 20  1  0
 23 45  1  0
 24 22  1  0
 24 25  1  0
 25 26  2  0
 26 27  1  0
 26 46  1  0
 27 28  2  0
 27 47  1  0
 28 29  1  0
 28 48  1  0
 29 24  2  0
 29 49  1  0
M  END
> <Name>
CHEMBL4059763

> <Clean Energy>
22.6493

> <chembl_id>
CHEMBL4059763

> <chembl_pref_name>
None

> <efficacy>
0.082621083

> <Forcefield>
MMFF

> <ForcefieldBase>
MMFF

> <ForcefieldFFML>
<?xml version="1.0" encoding="UTF-8"?>
<!DOCTYPE ffml SYSTEM "Ffml.dtd">
<ffml version="1.0">
<forcefield name="MMFF" derivedFrom="MMFF" base="MMFF">
<atomTypes>
<atomType
name="N100"
element="N"
mass="14.007"
annotation=""/>
<atomType
name="C101"
element="C"
mass="12.011"
annotation=""/>
<atomType
name="S102"
element="S"
mass="32.066"
annotation=""/>
<atomType
name="O103"
element="O"
mass="16"
annotation=""/>
<atomType
name="H104"
element="H"
mass="1.008"
annotation=""/>
</atomTypes>
<parameters>
</parameters>
</forcefield>
</ffml>

> <Initial Potential Energy>
97.44476

> <Initial RMS Gradient>
31.39362

> <Minimization Criteria>
CONJUG> Minimization exiting with gradient tolerance ( 0.0100000) satisfied.

> <CHARMm Energy>
8.60559

> <Potential Energy>
8.60559

> <RMS Gradient>
0.00946

> <Bond Energy>
6.00779

> <Angle Energy>
21.03648

> <STRBend>
-0.41296

> <Dihedral Energy>
13.12821

> <OOPLane>
0.15952

> <Van der Waals Energy>
58.74806

> <Electrostatic Energy>
-90.06151

> <Hydrogen Bond Energy>
0

> <Solvation Free Energy>
0

> <HasGasteigerCharges>
true

> <REMARK99>
REMARK  99  MacroMolecule created from Mol2 file
REMARK  99  CHEMBL4059763
REMARK  99  PROTEIN
REMARK  99  GASTEIGER
REMARK  99
REMARK  99

$$$$
CHEMBL1092855
  SciTegic05292516403D

 56 60  0  0  0  0            999 V2000
   -0.6870   -6.3892    0.1359 C   0  0
   -1.7923   -5.5716   -0.0771 C   0  0
   -3.1752   -7.5598   -0.1991 C   0  0
   -3.0287   -6.1580   -0.2705 C   0  0
   -4.5153   -7.9140   -0.3375 O   0  0
   -5.2537   -6.7259   -0.4264 C   0  0
   -4.3455   -5.5472   -0.6485 C   0  0  1  0  0  0
   -4.8381   -4.4027    0.2280 C   0  0
   -6.3180   -4.1793    0.2922 C   0  0
   -7.1218   -5.2418    0.0467 C   0  0
   -6.5620   -6.5827   -0.1411 C   0  0
   -8.5146   -5.1939    0.0434 O   0  0
   -6.9103   -2.8525    0.5894 C   0  0
   -6.0314   -1.6321    0.6531 C   0  0
   -8.1277   -2.7596    0.7638 O   0  0
   -4.0449   -3.6519    0.7985 O   0  0
   -4.3249   -5.1029   -2.1179 C   0  0
   -1.6035   -4.2222   -0.0839 O   0  0
   -0.8284   -7.7878    0.1568 C   0  0
   -2.0705   -8.3957    0.0025 C   0  0
   -2.1126   -9.8690    0.1305 C   0  0
   -0.9011  -10.5674    0.0076 N   0  0
    0.3322   -9.8153   -0.1374 C   0  0  1  0  0  0
    0.2944   -8.5047    0.4327 O   0  0
   -3.1928  -10.3727    0.4246 O   0  0
   -0.9554  -11.9025   -0.3962 C   0  0
    0.1891  -12.6459   -0.2217 N   0  0
   -1.9472  -12.3939   -0.9336 O   0  0
    0.2498  -14.0469   -0.5834 C   0  0
    1.4052  -10.5196    0.5104 O   0  0
    2.6829  -10.0644    0.0779 C   0  0
    1.6239  -14.5680   -0.3084 C   0  0
    2.1698  -14.9454    0.9049 C   0  0
    3.5056  -15.4257    0.7769 C   0  0
    3.9396  -15.3954   -0.5291 C   0  0
    2.7435  -14.7864   -1.5888 S   0  0
    0.2879   -5.9346    0.2974 H   0  0
   -7.1939   -7.4396    0.0739 H   0  0
   -8.8293   -4.2855    0.2789 H   0  0
   -6.6587   -0.7365    0.6023 H   0  0
   -5.3501   -1.6027   -0.2011 H   0  0
   -5.4800   -1.6169    1.5960 H   0  0
   -5.3060   -4.7441   -2.4500 H   0  0
   -4.0286   -5.9186   -2.7887 H   0  0
   -3.6162   -4.2796   -2.2690 H   0  0
   -2.3910   -3.7784    0.3055 H   0  0
    0.5450   -9.7419   -1.2134 H   0  0
    0.9297  -12.2414    0.3421 H   0  0
   -0.4925  -14.5863    0.0160 H   0  0
   -0.0354  -14.1505   -1.6362 H   0  0
    3.4464  -10.6438    0.6039 H   0  0
    2.8228   -9.0065    0.3182 H   0  0
    2.8034  -10.2284   -0.9972 H   0  0
    1.6296  -14.8815    1.8425 H   0  0
    4.1145  -15.7797    1.6000 H   0  0
    4.9019  -15.7042   -0.9147 H   0  0
  1  2  2  0
  1 37  1  0
  2  4  1  0
  2 18  1  0
  3  4  2  0
  3 20  1  0
  4  7  1  0
  5  3  1  0
  6  5  1  0
  6  7  1  0
  7  8  1  0
  7 17  1  0
  8  9  1  0
  8 16  2  0
  9 10  2  0
  9 13  1  0
 10 11  1  0
 10 12  1  0
 11  6  2  0
 11 38  1  0
 12 39  1  0
 13 14  1  0
 13 15  2  0
 14 40  1  0
 14 41  1  0
 14 42  1  0
 17 43  1  0
 17 44  1  0
 17 45  1  0
 18 46  1  0
 19  1  1  0
 19 20  2  0
 19 24  1  0
 20 21  1  0
 21 22  1  0
 21 25  2  0
 22 23  1  0
 22 26  1  0
 23 24  1  0
 23 30  1  0
 23 47  1  0
 26 27  1  0
 26 28  2  0
 27 29  1  0
 27 48  1  0
 29 32  1  0
 29 49  1  0
 29 50  1  0
 30 31  1  0
 31 51  1  0
 31 52  1  0
 31 53  1  0
 32 33  2  0
 33 34  1  0
 33 54  1  0
 34 35  2  0
 34 55  1  0
 35 36  1  0
 35 56  1  0
 36 32  1  0
M  END
> <Name>
CHEMBL1092855

> <Clean Energy>
85.965103

> <chembl_id>
CHEMBL1092855

> <chembl_pref_name>
None

> <efficacy>
0.421052632

> <Forcefield>
MMFF

> <ForcefieldBase>
MMFF

> <ForcefieldFFML>
<?xml version="1.0" encoding="UTF-8"?>
<!DOCTYPE ffml SYSTEM "Ffml.dtd">
<ffml version="1.0">
<forcefield name="MMFF" derivedFrom="MMFF" base="MMFF">
<atomTypes>
<atomType
name="C100"
element="C"
mass="12.011"
annotation=""/>
<atomType
name="O101"
element="O"
mass="16"
annotation=""/>
<atomType
name="N102"
element="N"
mass="14.007"
annotation=""/>
<atomType
name="S103"
element="S"
mass="32.066"
annotation=""/>
<atomType
name="H104"
element="H"
mass="1.008"
annotation=""/>
</atomTypes>
<parameters>
</parameters>
</forcefield>
</ffml>

> <Initial Potential Energy>
19.4732

> <Initial RMS Gradient>
24.06589

> <Minimization Criteria>
CONJUG> Minimization exiting with gradient tolerance ( 0.0100000) satisfied.

> <CHARMm Energy>
-64.44815

> <Potential Energy>
-64.44815

> <RMS Gradient>
0.00961

> <Bond Energy>
6.24254

> <Angle Energy>
32.11786

> <STRBend>
0.13851

> <Dihedral Energy>
20.18833

> <OOPLane>
0.98669

> <Van der Waals Energy>
60.12418

> <Electrostatic Energy>
-184.24627

> <Hydrogen Bond Energy>
0

> <Solvation Free Energy>
0

> <HasGasteigerCharges>
true

> <REMARK99>
REMARK  99  MacroMolecule created from Mol2 file
REMARK  99  CHEMBL1092855
REMARK  99  PROTEIN
REMARK  99  GASTEIGER
REMARK  99
REMARK  99

$$$$
CHEMBL4459701
  SciTegic05292516403D

 35 36  0  0  0  0            999 V2000
   32.8224   -8.4714    0.3516 C   0  0
   32.9578   -9.7829   -0.0347 C   0  0
   34.2445  -10.2608   -0.1132 C   0  0
   35.3382   -9.5295    0.1518 N   0  0
   35.1086   -8.2648    0.5033 C   0  0
   33.8957   -7.7059    0.6140 N   0  0
   31.5965   -7.8190    0.4448 N   0  0
   30.2526   -8.2332    0.4311 C   0  0
   29.2745   -7.4148   -0.1951 C   0  0
   27.9181   -7.8099   -0.1826 C   0  0
   27.5668   -9.0357    0.3994 C   0  0
   28.5235   -9.8538    0.9878 C   0  0
   29.8560   -9.4514    1.0046 C   0  0
   29.6913   -6.1128   -0.8396 C   0  0
   26.8249   -6.9722   -0.7954 C   0  0
   36.4895   -7.2119    0.8700 S   0  0
   37.7895   -8.0663   -0.0840 C   0  0
   39.0902   -7.2932   -0.1084 C   0  0
   39.1470   -6.1919    0.6763 O   0  0
   40.0563   -7.6419   -0.7771 O   0  0
   34.5151  -12.0628   -0.6440 Br  0  0
   32.1096  -10.3987   -0.2959 H   0  0
   31.7352   -6.8327    0.6361 H   0  0
   26.5270   -9.3602    0.4061 H   0  0
   28.2138  -10.7920    1.4458 H   0  0
   30.5788  -10.0821    1.5143 H   0  0
   28.9743   -5.7750   -1.5930 H   0  0
   30.6446   -6.2206   -1.3677 H   0  0
   29.7873   -5.3346   -0.0760 H   0  0
   25.8317   -7.3596   -0.5435 H   0  0
   26.9176   -6.9708   -1.8859 H   0  0
   26.8725   -5.9453   -0.4190 H   0  0
   37.9884   -9.0426    0.3675 H   0  0
   37.4545   -8.1840   -1.1191 H   0  0
   38.2878   -6.0405    1.1274 H   0  0
  1  2  2  0
  1  7  1  0
  2  3  1  0
  2 22  1  0
  3  4  2  0
  3 21  1  0
  4  5  1  0
  5  6  2  0
  5 16  1  0
  6  1  1  0
  7  8  1  0
  7 23  1  0
  8  9  2  0
  9 10  1  0
  9 14  1  0
 10 11  2  0
 10 15  1  0
 11 12  1  0
 11 24  1  0
 12 13  2  0
 12 25  1  0
 13  8  1  0
 13 26  1  0
 14 27  1  0
 14 28  1  0
 14 29  1  0
 15 30  1  0
 15 31  1  0
 15 32  1  0
 16 17  1  0
 17 18  1  0
 17 33  1  0
 17 34  1  0
 18 19  1  0
 18 20  2  0
 19 35  1  0
M  END
> <Name>
CHEMBL4459701

> <Clean Energy>
2.92101

> <chembl_id>
CHEMBL4459701

> <chembl_pref_name>
None

> <efficacy>
0.23

> <Forcefield>
MMFF

> <ForcefieldBase>
MMFF

> <ForcefieldFFML>
<?xml version="1.0" encoding="UTF-8"?>
<!DOCTYPE ffml SYSTEM "Ffml.dtd">
<ffml version="1.0">
<forcefield name="MMFF" derivedFrom="MMFF" base="MMFF">
<atomTypes>
<atomType
name="C100"
element="C"
mass="12.011"
annotation=""/>
<atomType
name="N101"
element="N"
mass="14.007"
annotation=""/>
<atomType
name="S102"
element="S"
mass="32.066"
annotation=""/>
<atomType
name="O103"
element="O"
mass="16"
annotation=""/>
<atomType
name="Br104"
element="Br"
mass="79.904"
annotation=""/>
<atomType
name="H105"
element="H"
mass="1.008"
annotation=""/>
</atomTypes>
<parameters>
</parameters>
</forcefield>
</ffml>

> <Initial Potential Energy>
13.00874

> <Initial RMS Gradient>
40.84428

> <Minimization Criteria>
CONJUG> Minimization exiting with gradient tolerance ( 0.0100000) satisfied.

> <CHARMm Energy>
-82.83042

> <Potential Energy>
-82.83042

> <RMS Gradient>
0.00923

> <Bond Energy>
3.02919

> <Angle Energy>
11.4538

> <STRBend>
0.1938

> <Dihedral Energy>
6.69697

> <OOPLane>
0.08331

> <Van der Waals Energy>
40.65949

> <Electrostatic Energy>
-144.94698

> <Hydrogen Bond Energy>
0

> <Solvation Free Energy>
0

> <HasGasteigerCharges>
true

> <REMARK99>
REMARK  99  MacroMolecule created from Mol2 file
REMARK  99  CHEMBL4459701
REMARK  99  PROTEIN
REMARK  99  GASTEIGER
REMARK  99
REMARK  99

$$$$
CHEMBL454691
  SciTegic05292516403D

 38 39  0  0  0  0            999 V2000
    7.3528   -2.7050    0.1199 C   0  0
    7.4601   -3.8189   -0.6732 C   0  0
    8.7400   -4.2188   -0.9580 C   0  0
    9.8544   -3.6094   -0.5334 N   0  0
    9.6520   -2.5313    0.2188 C   0  0
    8.4450   -2.0536    0.5605 N   0  0
   11.0474   -1.6225    0.8407 S   0  0
   12.4339   -2.3878   -0.1005 C   0  0  1  0  0  0
   13.6163   -1.4305   -0.2134 C   0  0
   13.5831   -0.3414    0.5899 O   0  0
   14.5757   -1.6382   -0.9479 O   0  0
    9.0271   -5.5952   -1.9427 Cl  0  0
    6.1356   -2.1323    0.4795 N   0  0
    4.7910   -2.5386    0.3972 C   0  0
    2.1050   -3.3274    0.2323 C   0  0
    3.0878   -4.2764    0.4858 C   0  0
    4.4202   -3.8815    0.5697 C   0  0
    2.4294   -1.9751    0.0571 C   0  0
    3.7846   -1.5773    0.1107 C   0  0
    4.1723   -0.1319   -0.1020 C   0  0
    1.3086   -1.0017   -0.2064 C   0  0
   12.9057   -3.6610    0.5931 C   0  0
    6.6040   -4.3352   -1.0804 H   0  0
   12.1047   -2.5852   -1.1262 H   0  0
   12.7419   -0.3035    1.0947 H   0  0
    6.2861   -1.2573    0.9696 H   0  0
    1.0666   -3.6520    0.1811 H   0  0
    2.7993   -5.3160    0.6343 H   0  0
    5.1653   -4.6320    0.8182 H   0  0
    3.4188    0.4202   -0.6705 H   0  0
    5.0971   -0.0523   -0.6830 H   0  0
    4.3095    0.3616    0.8652 H   0  0
    1.3737   -0.1490    0.4772 H   0  0
    0.3282   -1.4641   -0.0490 H   0  0
    1.3512   -0.6494   -1.2417 H   0  0
   13.7193   -4.1266    0.0249 H   0  0
   12.1084   -4.4047    0.6847 H   0  0
   13.2982   -3.4520    1.5953 H   0  0
  1  2  2  0
  1 13  1  0
  2  3  1  0
  2 23  1  0
  3  4  2  0
  3 12  1  0
  4  5  1  0
  5  6  2  0
  5  7  1  0
  6  1  1  0
  7  8  1  0
  8  9  1  0
  8 22  1  0
  8 24  1  0
  9 10  1  0
  9 11  2  0
 10 25  1  0
 13 14  1  0
 13 26  1  0
 14 19  2  0
 15 16  1  0
 15 27  1  0
 16 17  2  0
 16 28  1  0
 17 14  1  0
 17 29  1  0
 18 15  2  0
 18 19  1  0
 18 21  1  0
 19 20  1  0
 20 30  1  0
 20 31  1  0
 20 32  1  0
 21 33  1  0
 21 34  1  0
 21 35  1  0
 22 36  1  0
 22 37  1  0
 22 38  1  0
M  END
> <Name>
CHEMBL454691

> <Clean Energy>
7.16062

> <chembl_id>
CHEMBL454691

> <chembl_pref_name>
None

> <efficacy>
0.27

> <Forcefield>
MMFF

> <ForcefieldBase>
MMFF

> <ForcefieldFFML>
<?xml version="1.0" encoding="UTF-8"?>
<!DOCTYPE ffml SYSTEM "Ffml.dtd">
<ffml version="1.0">
<forcefield name="MMFF" derivedFrom="MMFF" base="MMFF">
<atomTypes>
<atomType
name="C100"
element="C"
mass="12.011"
annotation=""/>
<atomType
name="N101"
element="N"
mass="14.007"
annotation=""/>
<atomType
name="S102"
element="S"
mass="32.066"
annotation=""/>
<atomType
name="O103"
element="O"
mass="16"
annotation=""/>
<atomType
name="Cl104"
element="Cl"
mass="35.453"
annotation=""/>
<atomType
name="H105"
element="H"
mass="1.008"
annotation=""/>
</atomTypes>
<parameters>
</parameters>
</forcefield>
</ffml>

> <Initial Potential Energy>
25.35984

> <Initial RMS Gradient>
39.62071

> <Minimization Criteria>
CONJUG> Minimization exiting with gradient tolerance ( 0.0100000) satisfied.

> <CHARMm Energy>
-84.16906

> <Potential Energy>
-84.16906

> <RMS Gradient>
0.0098

> <Bond Energy>
3.56797

> <Angle Energy>
12.0226

> <STRBend>
0.37302

> <Dihedral Energy>
7.12786

> <OOPLane>
0.11305

> <Van der Waals Energy>
43.08872

> <Electrostatic Energy>
-150.46226

> <Hydrogen Bond Energy>
0

> <Solvation Free Energy>
0

> <HasGasteigerCharges>
true

> <REMARK99>
REMARK  99  MacroMolecule created from Mol2 file
REMARK  99  CHEMBL454691
REMARK  99  PROTEIN
REMARK  99  GASTEIGER
REMARK  99
REMARK  99

$$$$
CHEMBL4464538
  SciTegic05292516403D

 64 67  0  0  0  0            999 V2000
   12.6138  -12.3906    1.5735 C   0  0
   13.2233  -11.2292    0.7903 C   0  0  2  0  0  0
   14.7613  -11.2721    0.8353 C   0  0
   15.3306  -12.4665    0.0572 C   0  0
   16.8597  -12.4843    0.1132 C   0  0
   17.4293  -13.6945   -0.6285 C   0  0
   18.9564  -13.7126   -0.5717 C   0  0
   19.5246  -14.9380   -1.2688 C   0  0
   13.1382  -12.9394    2.5316 O   0  0
   11.4137  -12.8029    1.1044 O   0  0
   12.6679   -9.6449    1.5114 S   0  0
    9.9371   -8.3399    1.4781 S   0  0
   10.9971   -9.5923    1.0003 C   0  0
   10.4811  -10.5319    0.2370 N   0  0
    9.1355  -10.2741    0.0361 C   0  0
    8.6481   -9.1213    0.6479 C   0  0
    8.2500  -11.0781   -0.6999 C   0  0
    6.9012  -10.7125   -0.7889 C   0  0
    6.4070   -9.5625   -0.1679 C   0  0
    7.2985   -8.7484    0.5487 C   0  0
    5.0786   -9.1915   -0.2233 N   0  0
    4.0422   -9.9700   -0.8668 C   0  0
    0.2979   -7.8467   -0.3218 C   0  0
    0.6944   -8.8475    0.5775 C   0  0
    1.8967   -9.5409    0.3996 C   0  0
    2.7221   -9.2604   -0.6971 C   0  0
    2.3308   -8.2643   -1.6011 C   0  0
    1.1344   -7.5687   -1.4139 C   0  0
   -0.9468   -7.0925   -0.1165 C   0  0
   -0.9179   -5.6965    0.0371 C   0  0
   -2.0947   -4.9700    0.2329 C   0  0
   -3.3206   -5.6289    0.2758 C   0  0
   -3.3718   -7.0127    0.1256 C   0  0
   -2.1927   -7.7389   -0.0670 C   0  0
   12.9160  -11.2932   -0.2602 H   0  0
   15.1719  -10.3539    0.3945 H   0  0
   15.1164  -11.3178    1.8730 H   0  0
   14.9426  -13.4051    0.4688 H   0  0
   15.0031  -12.4124   -0.9881 H   0  0
   17.2550  -11.5612   -0.3280 H   0  0
   17.1883  -12.5095    1.1594 H   0  0
   17.0342  -14.6159   -0.1832 H   0  0
   17.1001  -13.6743   -1.6746 H   0  0
   19.3570  -12.8088   -1.0457 H   0  0
   19.2911  -13.7062    0.4722 H   0  0
   20.6182  -14.9283   -1.2210 H   0  0
   19.2299  -14.9623   -2.3227 H   0  0
   19.1722  -15.8581   -0.7916 H   0  0
   11.0059  -12.1466    0.4895 H   0  0
    8.6057  -11.9822   -1.1843 H   0  0
    6.2399  -11.3627   -1.3560 H   0  0
    6.9486   -7.8457    1.0413 H   0  0
    4.7862   -8.3462    0.2538 H   0  0
    4.2518  -10.0919   -1.9366 H   0  0
    3.9770  -10.9732   -0.4283 H   0  0
    0.0687   -9.0778    1.4387 H   0  0
    2.1846  -10.2946    1.1292 H   0  0
    2.9568   -8.0152   -2.4552 H   0  0
    0.8484   -6.8034   -2.1342 H   0  0
    0.0306   -5.1636    0.0160 H   0  0
   -2.0507   -3.8907    0.3540 H   0  0
   -4.2365   -5.0643    0.4259 H   0  0
   -4.3299   -7.5265    0.1557 H   0  0
   -2.2562   -8.8178   -0.1912 H   0  0
  1  2  1  0
  1  9  2  0
  1 10  1  0
  2  3  1  0
  2 11  1  0
  2 35  1  0
  3  4  1  0
  3 36  1  0
  3 37  1  0
  4  5  1  0
  4 38  1  0
  4 39  1  0
  5  6  1  0
  5 40  1  0
  5 41  1  0
  6  7  1  0
  6 42  1  0
  6 43  1  0
  7  8  1  0
  7 44  1  0
  7 45  1  0
  8 46  1  0
  8 47  1  0
  8 48  1  0
 10 49  1  0
 11 13  1  0
 12 13  1  0
 12 16  1  0
 13 14  2  0
 14 15  1  0
 15 16  1  0
 15 17  2  0
 16 20  2  0
 17 18  1  0
 17 50  1  0
 18 19  2  0
 18 51  1  0
 19 20  1  0
 19 21  1  0
 20 52  1  0
 21 22  1  0
 21 53  1  0
 22 26  1  0
 22 54  1  0
 22 55  1  0
 23 24  1  0
 23 28  2  0
 23 29  1  0
 24 25  2  0
 24 56  1  0
 25 26  1  0
 25 57  1  0
 26 27  2  0
 27 28  1  0
 27 58  1  0
 28 59  1  0
 29 30  1  0
 29 34  2  0
 30 31  2  0
 30 60  1  0
 31 32  1  0
 31 61  1  0
 32 33  2  0
 32 62  1  0
 33 34  1  0
 33 63  1  0
 34 64  1  0
M  END
> <Name>
CHEMBL4464538

> <Clean Energy>
29.9748

> <chembl_id>
CHEMBL4464538

> <chembl_pref_name>
None

> <efficacy>
0.32288699

> <Forcefield>
MMFF

> <ForcefieldBase>
MMFF

> <ForcefieldFFML>
<?xml version="1.0" encoding="UTF-8"?>
<!DOCTYPE ffml SYSTEM "Ffml.dtd">
<ffml version="1.0">
<forcefield name="MMFF" derivedFrom="MMFF" base="MMFF">
<atomTypes>
<atomType
name="C100"
element="C"
mass="12.011"
annotation=""/>
<atomType
name="O101"
element="O"
mass="16"
annotation=""/>
<atomType
name="S102"
element="S"
mass="32.066"
annotation=""/>
<atomType
name="N103"
element="N"
mass="14.007"
annotation=""/>
<atomType
name="H104"
element="H"
mass="1.008"
annotation=""/>
</atomTypes>
<parameters>
</parameters>
</forcefield>
</ffml>

> <Initial Potential Energy>
147.67591

> <Initial RMS Gradient>
28.69326

> <Minimization Criteria>
STEEPD> Minimization exiting with gradient tolerance ( 3.0000000) satisfied.

> <CHARMm Energy>
29.22224

> <Potential Energy>
29.22224

> <RMS Gradient>
0.16982

> <Bond Energy>
7.07407

> <Angle Energy>
13.08849

> <STRBend>
-1.72552

> <Dihedral Energy>
1.84933

> <OOPLane>
0.04969

> <Van der Waals Energy>
61.2601

> <Electrostatic Energy>
-52.37393

> <Hydrogen Bond Energy>
0

> <Solvation Free Energy>
0

> <HasGasteigerCharges>
true

> <REMARK99>
REMARK  99  MacroMolecule created from Mol2 file
REMARK  99  CHEMBL4464538
REMARK  99  PROTEIN
REMARK  99  GASTEIGER
REMARK  99
REMARK  99

$$$$
CHEMBL2204699
  SciTegic05292516403D

 44 46  0  0  0  0            999 V2000
   13.0889  -22.1172   -0.6744 C   0  0
   11.5293  -22.2203   -0.5769 C   0  0
   10.9483  -22.0625   -1.9903 C   0  0
   13.7914  -21.2907   -0.1055 O   0  0
   13.6754  -23.0608   -1.4698 O   0  0
   11.0885  -21.1311    0.2717 O   0  0
    9.7671  -21.0923    0.6309 C   0  0
    9.3785  -21.6152    1.8617 C   0  0
    8.0530  -21.4844    2.2982 C   0  0
    7.1007  -20.8048    1.5227 C   0  0
    7.5136  -20.2550    0.3005 C   0  0
    8.8404  -20.3888   -0.1361 C   0  0
    5.7034  -20.5792    2.0600 C   0  0
    4.5596  -21.0452    1.1524 C   0  0
    3.3160  -20.7620    1.8129 O   0  0
    0.6740  -20.6783    1.7240 S   0  0
    2.2209  -21.0445    1.1034 C   0  0
    2.2622  -21.6049   -0.0840 N   0  0
    0.9688  -21.7506   -0.5644 C   0  0
   -0.0412  -21.2952    0.2867 C   0  0
    0.6026  -22.3034   -1.8089 C   0  0
   -0.7467  -22.3821   -2.1673 C   0  0
   -1.7330  -21.9196   -1.3032 C   0  0
   -1.3990  -21.3701   -0.0625 C   0  0
   11.1856  -23.5917    0.0275 C   0  0
    9.8614  -22.1935   -1.9948 H   0  0
   11.3566  -22.7897   -2.6987 H   0  0
   11.1561  -21.0603   -2.3826 H   0  0
   13.0343  -23.6736   -1.8753 H   0  0
   10.1071  -22.1047    2.5013 H   0  0
    7.7845  -21.8889    3.2725 H   0  0
    6.8199  -19.6782   -0.3077 H   0  0
    9.1469  -19.9084   -1.0607 H   0  0
    5.5924  -21.0775    3.0324 H   0  0
    5.5849  -19.5094    2.2775 H   0  0
    4.5989  -20.5128    0.1940 H   0  0
    4.6459  -22.1238    0.9692 H   0  0
    1.3680  -22.6639   -2.4871 H   0  0
   -1.0230  -22.8081   -3.1291 H   0  0
   -2.7780  -21.9854   -1.5950 H   0  0
   -2.1688  -21.0098    0.6126 H   0  0
   10.1033  -23.7492    0.0839 H   0  0
   11.5813  -23.6748    1.0462 H   0  0
   11.5966  -24.4211   -0.5564 H   0  0
  1  2  1  0
  1  4  2  0
  1  5  1  0
  2  3  1  0
  2  6  1  0
  2 25  1  0
  3 26  1  0
  3 27  1  0
  3 28  1  0
  5 29  1  0
  6  7  1  0
  7  8  1  0
  7 12  2  0
  8  9  2  0
  8 30  1  0
  9 10  1  0
  9 31  1  0
 10 11  2  0
 10 13  1  0
 11 12  1  0
 11 32  1  0
 12 33  1  0
 13 14  1  0
 13 34  1  0
 13 35  1  0
 14 15  1  0
 14 36  1  0
 14 37  1  0
 15 17  1  0
 16 17  1  0
 16 20  1  0
 17 18  2  0
 18 19  1  0
 19 20  1  0
 19 21  2  0
 20 24  2  0
 21 22  1  0
 21 38  1  0
 22 23  2  0
 22 39  1  0
 23 24  1  0
 23 40  1  0
 24 41  1  0
 25 42  1  0
 25 43  1  0
 25 44  1  0
M  END
> <Name>
CHEMBL2204699

> <Clean Energy>
42.984402

> <chembl_id>
CHEMBL2204699

> <chembl_pref_name>
None

> <efficacy>
0.075973409

> <Forcefield>
MMFF

> <ForcefieldBase>
MMFF

> <ForcefieldFFML>
<?xml version="1.0" encoding="UTF-8"?>
<!DOCTYPE ffml SYSTEM "Ffml.dtd">
<ffml version="1.0">
<forcefield name="MMFF" derivedFrom="MMFF" base="MMFF">
<atomTypes>
<atomType
name="C100"
element="C"
mass="12.011"
annotation=""/>
<atomType
name="O101"
element="O"
mass="16"
annotation=""/>
<atomType
name="S102"
element="S"
mass="32.066"
annotation=""/>
<atomType
name="N103"
element="N"
mass="14.007"
annotation=""/>
<atomType
name="H104"
element="H"
mass="1.008"
annotation=""/>
</atomTypes>
<parameters>
</parameters>
</forcefield>
</ffml>

> <Initial Potential Energy>
128.36903

> <Initial RMS Gradient>
29.6131

> <Minimization Criteria>
STEEPD> Minimization exiting with gradient tolerance ( 3.0000000) satisfied.

> <CHARMm Energy>
58.60656

> <Potential Energy>
58.60656

> <RMS Gradient>
0.01813

> <Bond Energy>
6.26629

> <Angle Energy>
13.118

> <STRBend>
0.31272

> <Dihedral Energy>
7.70192

> <OOPLane>
0.2297

> <Van der Waals Energy>
42.58241

> <Electrostatic Energy>
-11.60446

> <Hydrogen Bond Energy>
0

> <Solvation Free Energy>
0

> <HasGasteigerCharges>
true

> <REMARK99>
REMARK  99  MacroMolecule created from Mol2 file
REMARK  99  CHEMBL2204699
REMARK  99  PROTEIN
REMARK  99  GASTEIGER
REMARK  99
REMARK  99

$$$$
CHEMBL1956370
  SciTegic05292516403D

 29 30  0  0  0  0            999 V2000
    6.0585  -20.1630   -1.3539 C   0  0
    6.4554  -21.4679   -1.6491 C   0  0
    7.0057  -22.2724   -0.6537 C   0  0
    7.1641  -21.7725    0.6371 C   0  0
    6.7672  -20.4681    0.9358 C   0  0
    6.1998  -19.6499   -0.0546 C   0  0
    0.9846  -17.7388   -0.1964 C   0  0
    0.7362  -18.6215    0.8465 C   0  0
    1.7917  -19.2717    1.4856 C   0  0
    3.1124  -19.0359    1.0829 C   0  0
    3.3782  -18.1440    0.0425 C   0  0
    2.2999  -17.5117   -0.5899 C   0  0
    4.6141  -17.8345   -0.4535 O   0  0
    5.7836  -18.2243    0.2789 C   0  0  2  0  0  0
    6.9106  -17.2418   -0.0703 C   0  0
    7.9883  -17.3635    0.7429 O   0  0
    6.9223  -16.3921   -0.9479 O   0  0
    2.5232  -16.6575   -1.6003 F   0  0
   -0.8809  -18.9198    1.3502 Cl  0  0
    5.6342  -19.5471   -2.1460 H   0  0
    6.3366  -21.8551   -2.6580 H   0  0
    7.3162  -23.2878   -0.8862 H   0  0
    7.6025  -22.3983    1.4104 H   0  0
    6.9125  -20.0917    1.9464 H   0  0
    0.1778  -17.2265   -0.7093 H   0  0
    1.5945  -19.9709    2.2952 H   0  0
    3.8995  -19.5808    1.5930 H   0  0
    5.6004  -18.0948    1.3540 H   0  0
    8.6164  -16.6995    0.3863 H   0  0
  1  2  2  0
  1 20  1  0
  2  3  1  0
  2 21  1  0
  3  4  2  0
  3 22  1  0
  4  5  1  0
  4 23  1  0
  5  6  2  0
  5 24  1  0
  6  1  1  0
  7  8  2  0
  7 25  1  0
  8  9  1  0
  8 19  1  0
  9 10  2  0
  9 26  1  0
 10 11  1  0
 10 27  1  0
 11 12  2  0
 11 13  1  0
 12  7  1  0
 12 18  1  0
 13 14  1  0
 14  6  1  0
 14 15  1  0
 14 28  1  0
 15 16  1  0
 15 17  2  0
 16 29  1  0
M  END
> <Name>
CHEMBL1956370

> <Clean Energy>
25.2736

> <chembl_id>
CHEMBL1956370

> <chembl_pref_name>
None

> <efficacy>
0.104463438

> <Forcefield>
MMFF

> <ForcefieldBase>
MMFF

> <ForcefieldFFML>
<?xml version="1.0" encoding="UTF-8"?>
<!DOCTYPE ffml SYSTEM "Ffml.dtd">
<ffml version="1.0">
<forcefield name="MMFF" derivedFrom="MMFF" base="MMFF">
<atomTypes>
<atomType
name="C100"
element="C"
mass="12.011"
annotation=""/>
<atomType
name="O101"
element="O"
mass="16"
annotation=""/>
<atomType
name="F102"
element="F"
mass="18.998"
annotation=""/>
<atomType
name="Cl103"
element="Cl"
mass="35.453"
annotation=""/>
<atomType
name="H104"
element="H"
mass="1.008"
annotation=""/>
</atomTypes>
<parameters>
</parameters>
</forcefield>
</ffml>

> <Initial Potential Energy>
196.54843

> <Initial RMS Gradient>
37.12702

> <Minimization Criteria>
CONJUG> Minimization exiting with gradient tolerance ( 0.0100000) satisfied.

> <CHARMm Energy>
74.83568

> <Potential Energy>
74.83568

> <RMS Gradient>
0.00825

> <Bond Energy>
3.55592

> <Angle Energy>
10.89901

> <STRBend>
0.282

> <Dihedral Energy>
2.66079

> <OOPLane>
0.02121

> <Van der Waals Energy>
33.95848

> <Electrostatic Energy>
23.45826

> <Hydrogen Bond Energy>
0

> <Solvation Free Energy>
0

> <HasGasteigerCharges>
true

> <REMARK99>
REMARK  99  MacroMolecule created from Mol2 file
REMARK  99  CHEMBL1956370
REMARK  99  PROTEIN
REMARK  99  GASTEIGER
REMARK  99
REMARK  99

$$$$
CHEMBL4465521
  SciTegic05292516403D

 38 39  0  0  0  0            999 V2000
   18.1327   -6.1335   -2.0877 C   0  0
   17.4700   -7.1636   -1.1572 C   0  0  2  0  0  0
   18.4236   -7.5042    0.0207 C   0  0
   13.3464   -7.2666    1.2966 C   0  0
   13.2330   -8.6445    1.1213 C   0  0
   14.1581   -9.3569    0.3356 C   0  0
   14.3938   -6.5847    0.6857 C   0  0
   15.3296   -7.2764   -0.0867 C   0  0
   15.2164   -8.6624   -0.2731 C   0  0
   16.2373   -9.2992   -1.1400 C   0  0
   17.0347   -8.3600   -1.9980 C   0  0
   16.3129   -6.4868   -0.6228 O   0  0
   12.1932   -9.3050    1.7218 O   0  0
   16.4302  -10.5070   -1.1869 O   0  0
   19.7218   -8.2211   -0.3632 C   0  0
   20.5962   -8.4728    0.8688 C   0  0
   21.8929   -9.1899    0.4933 C   0  0
   22.7663   -9.4366    1.7130 C   0  0
   13.9076  -11.0597    0.1309 Cl  0  0
   18.9906   -6.5502   -2.6239 H   0  0
   18.4667   -5.2550   -1.5235 H   0  0
   17.4155   -5.7644   -2.8307 H   0  0
   18.6677   -6.5728    0.5505 H   0  0
   17.8953   -8.1114    0.7668 H   0  0
   12.6324   -6.7117    1.8982 H   0  0
   14.4897   -5.5087    0.8165 H   0  0
   17.8921   -8.8907   -2.4239 H   0  0
   16.3860   -8.0552   -2.8291 H   0  0
   11.6512   -8.6804    2.2303 H   0  0
   19.4943   -9.1811   -0.8389 H   0  0
   20.2870   -7.6220   -1.0848 H   0  0
   20.8321   -7.5175    1.3533 H   0  0
   20.0406   -9.0764    1.5970 H   0  0
   21.6630  -10.1493    0.0155 H   0  0
   22.4527   -8.5908   -0.2343 H   0  0
   23.6875   -9.9508    1.4219 H   0  0
   22.2470  -10.0599    2.4480 H   0  0
   23.0418   -8.4934    2.1954 H   0  0
  1 20  1  0
  1 21  1  0
  1 22  1  0
  2  1  1  0
  2 12  1  0
  3  2  1  0
  3 15  1  0
  3 23  1  0
  3 24  1  0
  4  5  2  0
  4 25  1  0
  5  6  1  0
  5 13  1  0
  6  9  2  0
  6 19  1  0
  7  4  1  0
  7 26  1  0
  8  7  2  0
  8  9  1  0
  8 12  1  0
  9 10  1  0
 10 11  1  0
 10 14  2  0
 11  2  1  0
 11 27  1  0
 11 28  1  0
 13 29  1  0
 15 16  1  0
 15 30  1  0
 15 31  1  0
 16 17  1  0
 16 32  1  0
 16 33  1  0
 17 18  1  0
 17 34  1  0
 17 35  1  0
 18 36  1  0
 18 37  1  0
 18 38  1  0
M  END
> <Name>
CHEMBL4465521

> <Clean Energy>
13.9891

> <chembl_id>
CHEMBL4465521

> <chembl_pref_name>
None

> <efficacy>
0.3

> <Forcefield>
MMFF

> <ForcefieldBase>
MMFF

> <ForcefieldFFML>
<?xml version="1.0" encoding="UTF-8"?>
<!DOCTYPE ffml SYSTEM "Ffml.dtd">
<ffml version="1.0">
<forcefield name="MMFF" derivedFrom="MMFF" base="MMFF">
<atomTypes>
<atomType
name="C100"
element="C"
mass="12.011"
annotation=""/>
<atomType
name="O101"
element="O"
mass="16"
annotation=""/>
<atomType
name="Cl102"
element="Cl"
mass="35.453"
annotation=""/>
<atomType
name="H103"
element="H"
mass="1.008"
annotation=""/>
</atomTypes>
<parameters>
</parameters>
</forcefield>
</ffml>

> <Initial Potential Energy>
93.67917

> <Initial RMS Gradient>
24.18178

> <Minimization Criteria>
CONJUG> Minimization exiting with gradient tolerance ( 0.0100000) satisfied.

> <CHARMm Energy>
39.3561

> <Potential Energy>
39.3561

> <RMS Gradient>
0.00959

> <Bond Energy>
3.56499

> <Angle Energy>
11.58578

> <STRBend>
0.86068

> <Dihedral Energy>
-4.05891

> <OOPLane>
0.01227

> <Van der Waals Energy>
35.28194

> <Electrostatic Energy>
-7.89064

> <Hydrogen Bond Energy>
0

> <Solvation Free Energy>
0

> <HasGasteigerCharges>
true

> <REMARK99>
REMARK  99  MacroMolecule created from Mol2 file
REMARK  99  CHEMBL4465521
REMARK  99  PROTEIN
REMARK  99  GASTEIGER
REMARK  99
REMARK  99

$$$$
CHEMBL2312709
  SciTegic05292516403D

 48 50  0  0  0  0            999 V2000
   21.2514   -3.8494   -0.2811 C   0  0
   21.2172   -5.1721    0.1532 C   0  0
   22.3841   -5.7677    0.6248 C   0  0
   23.5837   -5.0420    0.6634 C   0  0
   23.6454   -3.7066    0.2310 C   0  0
   22.4537   -3.1269   -0.2424 C   0  0
   24.9141   -2.9452    0.2703 C   0  0
   25.6993   -2.8884    1.4344 C   0  0
   26.9077   -2.1611    1.4913 C   0  0
   27.3746   -1.5236    0.3307 C   0  0
   26.5746   -1.4972   -0.8239 C   0  0
   25.3710   -2.2302   -0.8473 C   0  0
   28.5525   -0.8140    0.3191 O   0  0
   29.7391   -1.6346    0.3535 C   0  0  2  0  0  0
   30.8965   -0.8021    0.9442 C   0  0
   31.9276   -1.5521    1.4193 O   0  0
   30.9327    0.4193    1.0042 O   0  0
   30.1168   -2.0759   -1.0708 C   0  0
   31.0760   -3.2424   -1.0907 C   0  0
   32.4274   -3.0452   -1.4069 C   0  0
   33.3206   -4.1159   -1.3827 C   0  0
   32.8713   -5.3915   -1.0482 C   0  0
   31.5276   -5.5997   -0.7416 C   0  0
   30.6309   -4.5311   -0.7634 C   0  0
   27.6360   -2.0919    2.8047 C   0  0
   26.9664   -0.7318   -2.0583 C   0  0
   20.3452   -3.3742   -0.6497 H   0  0
   20.2868   -5.7355    0.1223 H   0  0
   22.3803   -6.7990    0.9635 H   0  0
   24.4800   -5.5396    1.0275 H   0  0
   22.4526   -2.0915   -0.5778 H   0  0
   25.3458   -3.3926    2.3337 H   0  0
   24.7795   -2.2392   -1.7624 H   0  0
   29.5870   -2.4919    1.0185 H   0  0
   31.8147   -2.5155    1.2896 H   0  0
   29.2288   -2.3814   -1.6336 H   0  0
   30.5320   -1.2293   -1.6333 H   0  0
   32.7951   -2.0542   -1.6683 H   0  0
   34.3673   -3.9551   -1.6289 H   0  0
   33.5663   -6.2271   -1.0356 H   0  0
   31.1810   -6.5999   -0.4930 H   0  0
   29.5826   -4.7133   -0.5319 H   0  0
   28.2443   -1.1852    2.8799 H   0  0
   28.2801   -2.9680    2.9262 H   0  0
   26.9259   -2.0625    3.6384 H   0  0
   26.0907   -0.2364   -2.4918 H   0  0
   27.3896   -1.4114   -2.8041 H   0  0
   27.6973    0.0530   -1.8416 H   0  0
  1  2  2  0
  1 27  1  0
  2  3  1  0
  2 28  1  0
  3  4  2  0
  3 29  1  0
  4  5  1  0
  4 30  1  0
  5  6  2  0
  5  7  1  0
  6  1  1  0
  6 31  1  0
  7  8  2  0
  8  9  1  0
  8 32  1  0
  9 10  2  0
  9 25  1  0
 10 11  1  0
 10 13  1  0
 11 12  2  0
 11 26  1  0
 12  7  1  0
 12 33  1  0
 13 14  1  0
 14 15  1  0
 14 18  1  0
 14 34  1  0
 15 16  1  0
 15 17  2  0
 16 35  1  0
 18 19  1  0
 18 36  1  0
 18 37  1  0
 19 20  2  0
 20 21  1  0
 20 38  1  0
 21 22  2  0
 21 39  1  0
 22 23  1  0
 22 40  1  0
 23 24  2  0
 23 41  1  0
 24 19  1  0
 24 42  1  0
 25 43  1  0
 25 44  1  0
 25 45  1  0
 26 46  1  0
 26 47  1  0
 26 48  1  0
M  END
> <Name>
CHEMBL2312709

> <Clean Energy>
35.7463

> <chembl_id>
CHEMBL2312709

> <chembl_pref_name>
None

> <efficacy>
0.18

> <Forcefield>
MMFF

> <ForcefieldBase>
MMFF

> <ForcefieldFFML>
<?xml version="1.0" encoding="UTF-8"?>
<!DOCTYPE ffml SYSTEM "Ffml.dtd">
<ffml version="1.0">
<forcefield name="MMFF" derivedFrom="MMFF" base="MMFF">
<atomTypes>
<atomType
name="C100"
element="C"
mass="12.011"
annotation=""/>
<atomType
name="O101"
element="O"
mass="16"
annotation=""/>
<atomType
name="H102"
element="H"
mass="1.008"
annotation=""/>
</atomTypes>
<parameters>
</parameters>
</forcefield>
</ffml>

> <Initial Potential Energy>
195.82095

> <Initial RMS Gradient>
32.15537

> <Minimization Criteria>
CONJUG> Minimization exiting with gradient tolerance ( 0.0100000) satisfied.

> <CHARMm Energy>
87.3019

> <Potential Energy>
87.3019

> <RMS Gradient>
0.00904

> <Bond Energy>
7.68599

> <Angle Energy>
6.75632

> <STRBend>
0.27701

> <Dihedral Energy>
11.43636

> <OOPLane>
0.09338

> <Van der Waals Energy>
56.0274

> <Electrostatic Energy>
5.02545

> <Hydrogen Bond Energy>
0

> <Solvation Free Energy>
0

> <HasGasteigerCharges>
true

> <REMARK99>
REMARK  99  MacroMolecule created from Mol2 file
REMARK  99  CHEMBL2312709
REMARK  99  PROTEIN
REMARK  99  GASTEIGER
REMARK  99
REMARK  99

$$$$
CHEMBL4460166
  SciTegic05292516403D

 66 68  0  0  0  0            999 V2000
   12.6684  -12.0658    1.6232 C   0  0
   13.3714  -10.9355    0.8713 C   0  0  2  0  0  0
   14.9028  -11.0603    0.9633 C   0  0
   15.4377  -12.2504    0.1540 C   0  0
   16.9647  -12.3273    0.2293 C   0  0
   17.5064  -13.5023   -0.5868 C   0  0
   19.0322  -13.5688   -0.5187 C   0  0
   19.5764  -14.7396   -1.3216 C   0  0
   13.1611  -12.6963    2.5490 O   0  0
   11.4264  -12.3510    1.1666 O   0  0
   12.8795   -9.3233    1.5871 S   0  0
   10.1879   -7.9273    1.4907 S   0  0
   11.2426   -9.1734    0.9894 C   0  0
   10.7502  -10.0516    0.1427 N   0  0
    9.4258   -9.7433   -0.1181 C   0  0
    8.9282   -8.6250    0.5477 C   0  0
    8.5671  -10.4729   -0.9562 C   0  0
    7.2290  -10.0812   -1.0786 C   0  0
    6.7225   -8.9725   -0.3968 C   0  0
    7.5902   -8.2230    0.4128 C   0  0
    5.3984   -8.5941   -0.4608 N   0  0
    4.3648   -9.3510   -1.1335 C   0  0
    3.0295   -8.7237   -0.8261 C   0  0
    2.5030   -7.7244   -1.6477 C   0  0
    1.2887   -7.1121   -1.3266 C   0  0
    0.5608   -7.4714   -0.1755 C   0  0
    1.1068   -8.4719    0.6435 C   0  0
    2.3268   -9.0839    0.3285 C   0  0
   -0.7720   -6.7679    0.1442 C   0  0
   -0.5221   -5.2570    0.3387 C   0  0
   -1.4598   -7.2870    1.4269 C   0  0
   -1.7648   -6.9723   -1.0206 C   0  0
   13.0962  -10.9790   -0.1887 H   0  0
   15.3737  -10.1488    0.5711 H   0  0
   15.2229  -11.1632    2.0086 H   0  0
   15.0080  -13.1866    0.5281 H   0  0
   15.1287  -12.1490   -0.8935 H   0  0
   17.3986  -11.3917   -0.1442 H   0  0
   17.2755  -12.4327    1.2759 H   0  0
   17.0801  -14.4395   -0.2090 H   0  0
   17.1896  -13.4016   -1.6322 H   0  0
   19.4626  -12.6373   -0.9046 H   0  0
   19.3550  -13.6674    0.5243 H   0  0
   20.6691  -14.7645   -1.2627 H   0  0
   19.2948  -14.6572   -2.3763 H   0  0
   19.1941  -15.6906   -0.9368 H   0  0
   11.0883  -11.6754    0.5309 H   0  0
    8.9341  -11.3460   -1.4871 H   0  0
    6.5878  -10.6781   -1.7216 H   0  0
    7.2272   -7.3551    0.9560 H   0  0
    5.1032   -7.7556    0.0273 H   0  0
    4.5327   -9.3594   -2.2173 H   0  0
    4.3551  -10.3946   -0.7947 H   0  0
    3.0375   -7.4058   -2.5401 H   0  0
    0.9147   -6.3388   -1.9952 H   0  0
    0.6061   -8.7989    1.5508 H   0  0
    2.7301   -9.8413    0.9991 H   0  0
   -1.4485   -4.7332    0.6016 H   0  0
   -0.1316   -4.7819   -0.5678 H   0  0
    0.2022   -5.0776    1.1420 H   0  0
   -2.4034   -6.7592    1.6103 H   0  0
   -0.8304   -7.1357    2.3115 H   0  0
   -1.6964   -8.3548    1.3540 H   0  0
   -2.7337   -6.5096   -0.7995 H   0  0
   -1.9390   -8.0384   -1.2086 H   0  0
   -1.4053   -6.5277   -1.9551 H   0  0
  1  2  1  0
  1  9  2  0
  1 10  1  0
  2  3  1  0
  2 11  1  0
  2 33  1  0
  3  4  1  0
  3 34  1  0
  3 35  1  0
  4  5  1  0
  4 36  1  0
  4 37  1  0
  5  6  1  0
  5 38  1  0
  5 39  1  0
  6  7  1  0
  6 40  1  0
  6 41  1  0
  7  8  1  0
  7 42  1  0
  7 43  1  0
  8 44  1  0
  8 45  1  0
  8 46  1  0
 10 47  1  0
 11 13  1  0
 12 13  1  0
 12 16  1  0
 13 14  2  0
 14 15  1  0
 15 16  1  0
 15 17  2  0
 16 20  2  0
 17 18  1  0
 17 48  1  0
 18 19  2  0
 18 49  1  0
 19 20  1  0
 19 21  1  0
 20 50  1  0
 21 22  1  0
 21 51  1  0
 22 23  1  0
 22 52  1  0
 22 53  1  0
 23 24  1  0
 23 28  2  0
 24 25  2  0
 24 54  1  0
 25 26  1  0
 25 55  1  0
 26 27  2  0
 26 29  1  0
 27 28  1  0
 27 56  1  0
 28 57  1  0
 29 30  1  0
 29 31  1  0
 29 32  1  0
 30 58  1  0
 30 59  1  0
 30 60  1  0
 31 61  1  0
 31 62  1  0
 31 63  1  0
 32 64  1  0
 32 65  1  0
 32 66  1  0
M  END
> <Name>
CHEMBL4460166

> <Clean Energy>
42.5439

> <chembl_id>
CHEMBL4460166

> <chembl_pref_name>
None

> <efficacy>
0.265906933

> <Forcefield>
MMFF

> <ForcefieldBase>
MMFF

> <ForcefieldFFML>
<?xml version="1.0" encoding="UTF-8"?>
<!DOCTYPE ffml SYSTEM "Ffml.dtd">
<ffml version="1.0">
<forcefield name="MMFF" derivedFrom="MMFF" base="MMFF">
<atomTypes>
<atomType
name="C100"
element="C"
mass="12.011"
annotation=""/>
<atomType
name="O101"
element="O"
mass="16"
annotation=""/>
<atomType
name="S102"
element="S"
mass="32.066"
annotation=""/>
<atomType
name="N103"
element="N"
mass="14.007"
annotation=""/>
<atomType
name="H104"
element="H"
mass="1.008"
annotation=""/>
</atomTypes>
<parameters>
</parameters>
</forcefield>
</ffml>

> <Initial Potential Energy>
126.19119

> <Initial RMS Gradient>
24.84354

> <Minimization Criteria>
STEEPD> Minimization exiting with gradient tolerance ( 3.0000000) satisfied.

> <CHARMm Energy>
24.56153

> <Potential Energy>
24.56153

> <RMS Gradient>
0.06273

> <Bond Energy>
7.50934

> <Angle Energy>
14.30921

> <STRBend>
-0.91501

> <Dihedral Energy>
-2.79919

> <OOPLane>
0.06288

> <Van der Waals Energy>
58.41271

> <Electrostatic Energy>
-52.0184

> <Hydrogen Bond Energy>
0

> <Solvation Free Energy>
0

> <HasGasteigerCharges>
true

> <REMARK99>
REMARK  99  MacroMolecule created from Mol2 file
REMARK  99  CHEMBL4460166
REMARK  99  PROTEIN
REMARK  99  GASTEIGER
REMARK  99
REMARK  99

$$$$
CHEMBL4064900
  SciTegic05292516403D

 55 58  0  0  0  0            999 V2000
   -1.6864   -6.9450   -0.8563 C   0  0
   -2.0800   -8.2154   -0.4431 C   0  0
   -1.1255   -9.1191    0.0187 C   0  0
    0.2238   -8.7522    0.0674 C   0  0
    0.6409   -7.4772   -0.3445 C   0  0
   -0.3362   -6.5795   -0.8072 C   0  0
    2.0588   -7.1132   -0.2841 C   0  0
    3.1009   -7.8257    0.1119 N   0  0
    4.1845   -6.9700   -0.0420 C   0  0
    3.7314   -5.7662   -0.5307 C   0  0
    2.3824   -5.8431   -0.6901 O   0  0
    5.5823   -7.3858    0.3081 C   0  0
    6.5549   -6.4044   -0.0900 O   0  0
    7.8754   -6.6876    0.1381 C   0  0
    8.3818   -7.8105    0.7901 C   0  0
    9.7718   -7.9611    0.9413 C   0  0
   10.6760   -6.9983    0.4562 C   0  0
   10.1496   -5.8821   -0.2036 C   0  0
    8.7661   -5.7281   -0.3512 C   0  0
   12.1692   -7.2484    0.5914 C   0  0
   13.0647   -6.0278    0.5632 C   0  0
   13.7157   -5.6476   -0.6207 C   0  0
   14.5129   -4.4992   -0.6622 C   0  0
   14.6523   -3.7097    0.4778 C   0  0
   14.0461   -4.1053    1.6706 C   0  0
   13.2477   -5.2498    1.7133 C   0  0
   15.3735   -2.5532    0.5535 O   0  0
   15.4254   -1.7455   -0.6200 C   0  0  1  0  0  0
   15.5351   -0.2977   -0.1487 C   0  0
   16.6126   -2.0378   -1.5432 C   0  0
   17.6331   -2.6309   -1.2265 O   0  0
   16.4438   -1.5456   -2.8004 O   0  0
   -2.4275   -6.2363   -1.2174 H   0  0
   -3.1288   -8.5005   -0.4808 H   0  0
   -1.4263  -10.1121    0.3428 H   0  0
    0.9515   -9.4742    0.4325 H   0  0
   -0.0540   -5.5811   -1.1358 H   0  0
    4.1966   -4.8288   -0.7968 H   0  0
    5.6311   -7.5283    1.3943 H   0  0
    5.7920   -8.3355   -0.1990 H   0  0
    7.7372   -8.5902    1.1897 H   0  0
   10.1507   -8.8506    1.4414 H   0  0
   10.8013   -5.1149   -0.6145 H   0  0
    8.3795   -4.8501   -0.8635 H   0  0
   12.3608   -7.7795    1.5337 H   0  0
   12.4692   -7.9376   -0.2089 H   0  0
   13.5886   -6.2444   -1.5220 H   0  0
   15.0282   -4.2621   -1.5874 H   0  0
   14.1831   -3.5082    2.5692 H   0  0
   12.7581   -5.5245    2.6452 H   0  0
   14.4933   -1.8513   -1.1910 H   0  0
   15.5484    0.4021   -0.9903 H   0  0
   16.4503   -0.1459    0.4351 H   0  0
   14.6944   -0.0422    0.5054 H   0  0
   15.5649   -1.1463   -2.9547 H   0  0
  1  2  2  0
  1 33  1  0
  2  3  1  0
  2 34  1  0
  3  4  2  0
  3 35  1  0
  4  5  1  0
  4 36  1  0
  5  6  2  0
  5  7  1  0
  6  1  1  0
  6 37  1  0
  7  8  2  0
  8  9  1  0
  9 10  2  0
  9 12  1  0
 10 11  1  0
 10 38  1  0
 11  7  1  0
 12 13  1  0
 12 39  1  0
 12 40  1  0
 13 14  1  0
 14 15  2  0
 15 16  1  0
 15 41  1  0
 16 17  2  0
 16 42  1  0
 17 18  1  0
 17 20  1  0
 18 19  2  0
 18 43  1  0
 19 14  1  0
 19 44  1  0
 20 21  1  0
 20 45  1  0
 20 46  1  0
 21 22  2  0
 22 23  1  0
 22 47  1  0
 23 24  2  0
 23 48  1  0
 24 25  1  0
 24 27  1  0
 25 26  2  0
 25 49  1  0
 26 21  1  0
 26 50  1  0
 27 28  1  0
 28 29  1  0
 28 30  1  0
 28 51  1  0
 29 52  1  0
 29 53  1  0
 29 54  1  0
 30 31  2  0
 30 32  1  0
 32 55  1  0
M  END
> <Name>
CHEMBL4064900

> <Clean Energy>
29.4429

> <chembl_id>
CHEMBL4064900

> <chembl_pref_name>
None

> <efficacy>
0.26

> <Forcefield>
MMFF

> <ForcefieldBase>
MMFF

> <ForcefieldFFML>
<?xml version="1.0" encoding="UTF-8"?>
<!DOCTYPE ffml SYSTEM "Ffml.dtd">
<ffml version="1.0">
<forcefield name="MMFF" derivedFrom="MMFF" base="MMFF">
<atomTypes>
<atomType
name="C100"
element="C"
mass="12.011"
annotation=""/>
<atomType
name="N101"
element="N"
mass="14.007"
annotation=""/>
<atomType
name="O102"
element="O"
mass="16"
annotation=""/>
<atomType
name="H103"
element="H"
mass="1.008"
annotation=""/>
</atomTypes>
<parameters>
</parameters>
</forcefield>
</ffml>

> <Initial Potential Energy>
201.42024

> <Initial RMS Gradient>
30.12955

> <Minimization Criteria>
CONJUG> Minimization exiting with gradient tolerance ( 0.0100000) satisfied.

> <CHARMm Energy>
109.70624

> <Potential Energy>
109.70624

> <RMS Gradient>
0.00901

> <Bond Energy>
6.8576

> <Angle Energy>
17.44848

> <STRBend>
0.01985

> <Dihedral Energy>
0.03266

> <OOPLane>
0.0437

> <Van der Waals Energy>
59.03383

> <Electrostatic Energy>
26.27012

> <Hydrogen Bond Energy>
0

> <Solvation Free Energy>
0

> <HasGasteigerCharges>
true

> <REMARK99>
REMARK  99  MacroMolecule created from Mol2 file
REMARK  99  CHEMBL4064900
REMARK  99  PROTEIN
REMARK  99  GASTEIGER
REMARK  99
REMARK  99

$$$$
CHEMBL4282648
  SciTegic05292516403D

 65 70  0  0  0  0            999 V2000
    2.1834  -14.1449   -0.9503 C   0  0
    2.9658  -14.3993    0.1598 N   0  0
    2.4575  -12.9558   -1.4625 N   0  0
    3.4750  -12.4500   -0.6888 C   0  0
    3.8013  -13.3256    0.3358 C   0  0
    4.7261  -13.1595    1.3033 N   0  0
    5.3776  -11.9744    1.2115 C   0  0
    5.1354  -11.0087    0.2259 C   0  0
    4.1664  -11.2314   -0.7682 C   0  0
    1.1581  -15.0825   -1.4957 C   0  0
   -0.2189  -14.7990   -0.9166 C   0  0
    3.9002  -10.1927   -1.8129 C   0  0
    6.4167  -11.6987    2.2614 C   0  0
    2.8815  -15.5285    1.0693 C   0  0
    3.9637  -16.5510    0.8127 C   0  0
    3.7456  -17.6392   -0.0436 C   0  0
    4.7668  -18.5557   -0.3013 C   0  0
    5.2252  -16.4049    1.4139 C   0  0
    6.0182  -18.3999    0.3030 C   0  0
    6.2567  -17.3161    1.1597 C   0  0
    7.6295  -17.1292    1.7594 C   0  0
    7.1320  -19.3350    0.0320 C   0  0
    8.6766  -16.7360    0.7103 C   0  0
    9.0024  -17.6773   -0.4393 C   0  0
    8.2992  -18.8576   -0.7648 C   0  0
    8.6592  -19.5734   -1.9242 C   0  0
    9.7214  -19.1621   -2.7286 C   0  0
   10.4377  -18.0215   -2.3947 C   0  0
   10.0767  -17.2845   -1.2674 C   0  0
    7.1211  -20.5651    0.6117 C   0  0
    8.1909  -21.5087    0.5254 C   0  0
    6.0215  -21.1183    1.4886 C   0  0
    8.0377  -22.6451   -0.2338 N   0  0
    9.1656  -23.3346   -0.1176 N   0  0
    9.9273  -22.5917    0.6976 N   0  0
    9.3688  -21.4695    1.1695 N   0  0
    5.6919  -10.0732    0.2329 H   0  0
    1.1176  -14.9624   -2.5850 H   0  0
    1.4306  -16.1246   -1.3135 H   0  0
   -0.9582  -15.4836   -1.3441 H   0  0
   -0.5376  -13.7744   -1.1376 H   0  0
   -0.2286  -14.9245    0.1711 H   0  0
    3.1544  -10.5363   -2.5366 H   0  0
    4.8199   -9.9628   -2.3603 H   0  0
    3.5242   -9.2769   -1.3459 H   0  0
    7.3917  -11.5312    1.7934 H   0  0
    6.5106  -12.5461    2.9484 H   0  0
    6.1389  -10.8154    2.8447 H   0  0
    2.9497  -15.1423    2.0939 H   0  0
    1.8897  -15.9838    0.9835 H   0  0
    2.7833  -17.7852   -0.5259 H   0  0
    4.5867  -19.3846   -0.9816 H   0  0
    5.4132  -15.5560    2.0701 H   0  0
    7.5898  -16.3417    2.5230 H   0  0
    7.9315  -18.0391    2.2933 H   0  0
    8.3707  -15.7790    0.2646 H   0  0
    9.6133  -16.5485    1.2528 H   0  0
    8.1063  -20.4652   -2.2160 H   0  0
    9.9814  -19.7333   -3.6156 H   0  0
   11.2675  -17.6962   -3.0165 H   0  0
   10.6344  -16.3781   -1.0371 H   0  0
    6.4335  -21.5527    2.4078 H   0  0
    5.4689  -21.9015    0.9573 H   0  0
    5.2983  -20.3656    1.8125 H   0  0
   10.8726  -22.8691    0.9468 H   0  0
  1  2  1  0
  1 10  1  0
  2  5  1  0
  2 14  1  0
  3  1  2  0
  4  3  1  0
  4  5  2  0
  5  6  1  0
  6  7  2  0
  7  8  1  0
  7 13  1  0
  8  9  2  0
  8 37  1  0
  9  4  1  0
  9 12  1  0
 10 11  1  0
 10 38  1  0
 10 39  1  0
 11 40  1  0
 11 41  1  0
 11 42  1  0
 12 43  1  0
 12 44  1  0
 12 45  1  0
 13 46  1  0
 13 47  1  0
 13 48  1  0
 14 15  1  0
 14 49  1  0
 14 50  1  0
 15 16  2  0
 16 17  1  0
 16 51  1  0
 17 19  2  0
 17 52  1  0
 18 15  1  0
 18 53  1  0
 19 20  1  0
 19 22  1  0
 20 18  2  0
 20 21  1  0
 21 23  1  0
 21 54  1  0
 21 55  1  0
 22 25  1  0
 22 30  2  0
 23 24  1  0
 23 56  1  0
 23 57  1  0
 24 25  2  0
 25 26  1  0
 26 27  2  0
 26 58  1  0
 27 28  1  0
 27 59  1  0
 28 29  2  0
 28 60  1  0
 29 24  1  0
 29 61  1  0
 30 31  1  0
 30 32  1  0
 31 33  1  0
 32 62  1  0
 32 63  1  0
 32 64  1  0
 33 34  2  0
 34 35  1  0
 35 36  1  0
 35 65  1  0
 36 31  2  0
M  END
> <Name>
CHEMBL4282648

> <Clean Energy>
103.834999

> <chembl_id>
CHEMBL4282648

> <chembl_pref_name>
None

> <efficacy>
0.00379867

> <Forcefield>
MMFF

> <ForcefieldBase>
MMFF

> <ForcefieldFFML>
<?xml version="1.0" encoding="UTF-8"?>
<!DOCTYPE ffml SYSTEM "Ffml.dtd">
<ffml version="1.0">
<forcefield name="MMFF" derivedFrom="MMFF" base="MMFF">
<atomTypes>
<atomType
name="C100"
element="C"
mass="12.011"
annotation=""/>
<atomType
name="N101"
element="N"
mass="14.007"
annotation=""/>
<atomType
name="H102"
element="H"
mass="1.008"
annotation=""/>
</atomTypes>
<parameters>
</parameters>
</forcefield>
</ffml>

> <Initial Potential Energy>
280.03601

> <Initial RMS Gradient>
37.22081

> <Minimization Criteria>
STEEPD> Minimization exiting with gradient tolerance ( 3.0000000) satisfied.

> <CHARMm Energy>
106.05512

> <Potential Energy>
106.05512

> <RMS Gradient>
0.02016

> <Bond Energy>
8.44443

> <Angle Energy>
10.38417

> <STRBend>
0.24216

> <Dihedral Energy>
13.27988

> <OOPLane>
0.13996

> <Van der Waals Energy>
67.36985

> <Electrostatic Energy>
6.19467

> <Hydrogen Bond Energy>
0

> <Solvation Free Energy>
0

> <HasGasteigerCharges>
true

> <REMARK99>
REMARK  99  MacroMolecule created from Mol2 file
REMARK  99  CHEMBL4282648
REMARK  99  PROTEIN
REMARK  99  GASTEIGER
REMARK  99
REMARK  99

$$$$
CHEMBL5184438
  SciTegic05292516403D

 42 43  0  0  0  0            999 V2000
   -0.9008   -0.5467    0.4079 C   0  0
    0.2944   -0.3775   -0.5384 C   0  0  1  0  0  0
    0.6115    1.1041   -0.7935 C   0  0
    1.4414    1.3000   -1.8495 O   0  0
    0.2249    2.0304   -0.0936 O   0  0
    1.4992   -1.0147    0.0055 N   0  0
    2.5139   -1.4133   -0.8354 C   0  0
    3.6923   -2.0784   -0.1575 C   0  0
    4.7798   -1.0908    0.1784 C   0  0
    4.7893   -0.4332    1.4168 C   0  0
    5.7800    0.5043    1.7103 C   0  0
    6.7665    0.7938    0.7702 C   0  0
    6.7630    0.1500   -0.4656 C   0  0
    5.7721   -0.7855   -0.7632 C   0  0
    2.4486   -1.1878   -2.0435 O   0  0
   -2.4759   -0.3274   -0.4849 S   0  0
   -3.6123   -0.3670    0.9351 C   0  0
   -5.0436   -0.2279    0.4859 C   0  0
   -5.8170   -1.3638    0.2045 C   0  0
   -7.1327   -1.2302   -0.2383 C   0  0
   -7.6857    0.0379   -0.4089 C   0  0
   -6.9241    1.1739   -0.1407 C   0  0
   -5.6090    1.0428    0.3027 C   0  0
   -0.9041   -1.5592    0.8266 H   0  0
   -0.8505    0.1579    1.2447 H   0  0
    0.0669   -0.8480   -1.5040 H   0  0
    1.7890    0.4552   -2.2312 H   0  0
    1.6651   -0.9981    1.0052 H   0  0
    3.3573   -2.5932    0.7513 H   0  0
    4.0773   -2.8605   -0.8228 H   0  0
    4.0236   -0.6394    2.1609 H   0  0
    5.7804    1.0134    2.6705 H   0  0
    7.5398    1.5236    0.9977 H   0  0
    7.5336    0.3794   -1.1987 H   0  0
    5.7754   -1.2693   -1.7383 H   0  0
   -3.4818   -1.3097    1.4781 H   0  0
   -3.3613    0.4448    1.6270 H   0  0
   -5.3890   -2.3573    0.3169 H   0  0
   -7.7271   -2.1133   -0.4589 H   0  0
   -8.7087    0.1421   -0.7611 H   0  0
   -7.3532    2.1620   -0.2865 H   0  0
   -5.0162    1.9361    0.4898 H   0  0
  1  2  1  0
  1 16  1  0
  1 24  1  0
  1 25  1  0
  2  3  1  0
  2  6  1  0
  2 26  1  0
  3  4  1  0
  3  5  2  0
  4 27  1  0
  6  7  1  0
  6 28  1  0
  7  8  1  0
  7 15  2  0
  8  9  1  0
  8 29  1  0
  8 30  1  0
  9 10  2  0
  9 14  1  0
 10 11  1  0
 10 31  1  0
 11 12  2  0
 11 32  1  0
 12 13  1  0
 12 33  1  0
 13 14  2  0
 13 34  1  0
 14 35  1  0
 16 17  1  0
 17 18  1  0
 17 36  1  0
 17 37  1  0
 18 19  2  0
 18 23  1  0
 19 20  1  0
 19 38  1  0
 20 21  2  0
 20 39  1  0
 21 22  1  0
 21 40  1  0
 22 23  2  0
 22 41  1  0
 23 42  1  0
M  END
> <Name>
CHEMBL5184438

> <Clean Energy>
8.5491

> <chembl_id>
CHEMBL5184438

> <chembl_pref_name>
None

> <efficacy>
0.16

> <Forcefield>
MMFF

> <ForcefieldBase>
MMFF

> <ForcefieldFFML>
<?xml version="1.0" encoding="UTF-8"?>
<!DOCTYPE ffml SYSTEM "Ffml.dtd">
<ffml version="1.0">
<forcefield name="MMFF" derivedFrom="MMFF" base="MMFF">
<atomTypes>
<atomType
name="C100"
element="C"
mass="12.011"
annotation=""/>
<atomType
name="O101"
element="O"
mass="16"
annotation=""/>
<atomType
name="N102"
element="N"
mass="14.007"
annotation=""/>
<atomType
name="S103"
element="S"
mass="32.066"
annotation=""/>
<atomType
name="H104"
element="H"
mass="1.008"
annotation=""/>
</atomTypes>
<parameters>
</parameters>
</forcefield>
</ffml>

> <Initial Potential Energy>
144.60622

> <Initial RMS Gradient>
28.2576

> <Minimization Criteria>
STEEPD> Minimization exiting with gradient tolerance ( 3.0000000) satisfied.

> <CHARMm Energy>
59.59846

> <Potential Energy>
59.59846

> <RMS Gradient>
0.04758

> <Bond Energy>
4.27408

> <Angle Energy>
3.15353

> <STRBend>
0.25135

> <Dihedral Energy>
10.60139

> <OOPLane>
0.2436

> <Van der Waals Energy>
40.34764

> <Electrostatic Energy>
0.72686

> <Hydrogen Bond Energy>
0

> <Solvation Free Energy>
0

> <HasGasteigerCharges>
true

> <REMARK99>
REMARK  99  MacroMolecule created from Mol2 file
REMARK  99  CHEMBL5184438
REMARK  99  PROTEIN
REMARK  99  GASTEIGER
REMARK  99
REMARK  99

$$$$
CHEMBL182941
  SciTegic05292516403D

 43 44  0  0  0  0            999 V2000
    9.5406   -2.4210    0.7535 C   0  0
    9.1194   -3.7538    0.2638 C   0  0
    8.6387   -1.4215    0.7839 C   0  0
    6.8766   -2.8607   -0.0448 C   0  0
    7.2643   -1.6538    0.3890 C   0  0
    7.8147   -3.9203   -0.1076 O   0  0
   10.9048   -2.2708    1.1553 C   0  0
   12.0096   -2.1048    1.4754 N   0  0
    5.4982   -3.2275   -0.4673 C   0  0
    9.9257   -4.6768    0.1762 O   0  0
    9.0054    0.1917    1.3504 S   0  0
    4.5109   -2.2679   -0.7574 C   0  0
    5.1427   -4.5818   -0.6121 C   0  0
    2.8863   -3.9940   -1.2454 C   0  0
    3.2152   -2.6459   -1.1430 C   0  0
    3.8532   -4.9624   -1.0069 C   0  0
   -1.4812   -4.9497    0.8571 S   0  0
    1.6376   -4.4095   -1.6238 O   0  0
    9.8719    0.8757   -0.0998 C   0  0
   -0.2554   -5.2711   -0.4475 C   0  0
   -2.4923   -6.4559    0.6973 C   0  0
    0.6438   -4.0566   -0.6462 C   0  0
   -1.7779   -7.6918    1.2131 C   0  0
   10.2350    2.3280    0.1523 C   0  0
    6.5692   -0.8246    0.4756 H   0  0
    4.7249   -1.2040   -0.7009 H   0  0
    5.8660   -5.3715   -0.4164 H   0  0
    2.4751   -1.8833   -1.3687 H   0  0
    3.6069   -6.0154   -1.1121 H   0  0
   10.7795    0.2986   -0.2995 H   0  0
    9.2197    0.8042   -0.9763 H   0  0
    0.3564   -6.1371   -0.1751 H   0  0
   -0.7634   -5.5110   -1.3878 H   0  0
   -3.4065   -6.3001    1.2793 H   0  0
   -2.7915   -6.5871   -0.3474 H   0  0
    0.0725   -3.2067   -1.0376 H   0  0
    1.0962   -3.7655    0.3123 H   0  0
   -2.4484   -8.5561    1.1570 H   0  0
   -1.4772   -7.5745    2.2595 H   0  0
   -0.8906   -7.9308    0.6194 H   0  0
   10.7493    2.7402   -0.7223 H   0  0
   10.9073    2.4315    1.0109 H   0  0
    9.3444    2.9402    0.3304 H   0  0
  2  1  1  0
  3  1  2  0
  4  5  2  0
  4  6  1  0
  5  3  1  0
  5 25  1  0
  6  2  1  0
  7  1  1  0
  8  7  3  0
  9  4  1  0
 10  2  2  0
 11  3  1  0
 12  9  2  0
 12 26  1  0
 13  9  1  0
 13 27  1  0
 14 16  1  0
 15 12  1  0
 15 14  2  0
 15 28  1  0
 16 13  2  0
 16 29  1  0
 17 20  1  0
 18 14  1  0
 19 11  1  0
 19 30  1  0
 19 31  1  0
 20 22  1  0
 20 32  1  0
 20 33  1  0
 21 17  1  0
 21 34  1  0
 21 35  1  0
 22 18  1  0
 22 36  1  0
 22 37  1  0
 23 21  1  0
 23 38  1  0
 23 39  1  0
 23 40  1  0
 24 19  1  0
 24 41  1  0
 24 42  1  0
 24 43  1  0
M  END
> <Name>
CHEMBL182941

> <Clean Energy>
45.476398

> <chembl_id>
CHEMBL182941

> <chembl_pref_name>
None

> <efficacy>
0.3

> <Forcefield>
MMFF

> <ForcefieldBase>
MMFF

> <ForcefieldFFML>
<?xml version="1.0" encoding="UTF-8"?>
<!DOCTYPE ffml SYSTEM "Ffml.dtd">
<ffml version="1.0">
<forcefield name="MMFF" derivedFrom="MMFF" base="MMFF">
<atomTypes>
<atomType
name="C100"
element="C"
mass="12.011"
annotation=""/>
<atomType
name="O101"
element="O"
mass="16"
annotation=""/>
<atomType
name="N102"
element="N"
mass="14.007"
annotation=""/>
<atomType
name="S103"
element="S"
mass="32.066"
annotation=""/>
<atomType
name="H104"
element="H"
mass="1.008"
annotation=""/>
</atomTypes>
<parameters>
</parameters>
</forcefield>
</ffml>

> <Initial Potential Energy>
152.26004

> <Initial RMS Gradient>
22.87744

> <Minimization Criteria>
STEEPD> Minimization exiting with gradient tolerance ( 3.0000000) satisfied.

> <CHARMm Energy>
36.93638

> <Potential Energy>
36.93638

> <RMS Gradient>
0.06299

> <Bond Energy>
4.09328

> <Angle Energy>
16.5226

> <STRBend>
-0.03037

> <Dihedral Energy>
6.39803

> <OOPLane>
0.03075

> <Van der Waals Energy>
41.04765

> <Electrostatic Energy>
-31.12556

> <Hydrogen Bond Energy>
0

> <Solvation Free Energy>
0

> <HasGasteigerCharges>
true

> <REMARK99>
REMARK  99  MacroMolecule created from Mol2 file
REMARK  99  CHEMBL182941
REMARK  99  PROTEIN
REMARK  99  GASTEIGER
REMARK  99
REMARK  99

$$$$
CHEMBL2113105
  SciTegic05292516403D

 50 50  0  0  0  0            999 V2000
    0.0890   -1.2111    0.1527 C   0  0
    0.3791   -2.5498   -0.1789 C   0  0
    1.1710   -0.3155    0.7445 C   0  0  2  0  0  0
    3.3912    0.8628    0.2547 C   0  0
    1.6641   -2.9581    0.0695 O   0  0
    0.5514    0.8158    1.3922 O   0  0
   -1.2083   -0.7218   -0.0916 C   0  0
    2.1874    0.1573   -0.3297 C   0  0
   -0.6212   -3.3696   -0.7178 C   0  0
    2.0821   -4.2132   -0.4635 C   0  0
    3.5916   -4.3600   -0.2732 C   0  0
    5.5069   -4.5456    1.3618 C   0  0
    4.0053   -4.3079    1.1999 C   0  0
   -2.1956   -1.5451   -0.6312 C   0  0
    5.9307   -4.4592    2.8191 C   0  0
   -1.9060   -2.8708   -0.9384 C   0  0
    4.6911    0.5256    0.1675 C   0  0
    5.3330   -0.6383   -0.5534 C   0  0
    6.7282   -0.2703   -1.0946 C   0  0
    7.4602   -1.4558   -1.7360 C   0  0
    8.9110   -1.1727   -2.1764 C   0  0
    9.5404   -2.1717   -2.6412 O   0  5
    9.3242    0.0115   -2.0228 O   0  0
    1.6844   -0.8728    1.5387 H   0  0
    3.1636    1.7763    0.8023 H   0  0
    1.2589    1.2338    1.9109 H   0  0
   -1.4393    0.3165    0.1344 H   0  0
    1.6909    0.8649   -1.0063 H   0  0
    2.5131   -0.6878   -0.9441 H   0  0
   -0.4034   -4.3968   -0.9864 H   0  0
    1.5662   -5.0289    0.0565 H   0  0
    1.8650   -4.2629   -1.5373 H   0  0
    3.9156   -5.3080   -0.7181 H   0  0
    4.1013   -3.5519   -0.8112 H   0  0
    5.7710   -5.5341    0.9682 H   0  0
    6.0685   -3.8058    0.7803 H   0  0
    3.4516   -5.0677    1.7647 H   0  0
    3.7424   -3.3322    1.6261 H   0  0
   -3.1906   -1.1475   -0.8108 H   0  0
    7.0066   -4.6372    2.9120 H   0  0
    5.4088   -5.2070    3.4246 H   0  0
    5.7135   -3.4691    3.2325 H   0  0
   -2.6780   -3.5122   -1.3564 H   0  0
    5.4010    1.1746    0.6833 H   0  0
    5.4361   -1.4622    0.1613 H   0  0
    4.7038   -0.9853   -1.3792 H   0  0
    6.6327    0.5397   -1.8291 H   0  0
    7.3416    0.1232   -0.2735 H   0  0
    7.4919   -2.2899   -1.0243 H   0  0
    6.9009   -1.7967   -2.6154 H   0  0
  2  1  1  0
  3  1  1  0
  3 24  1  0
  4  8  1  0
  4 17  2  0
  4 25  1  0
  5  2  1  0
  6  3  1  0
  6 26  1  0
  7  1  2  0
  7 27  1  0
  8  3  1  0
  8 28  1  0
  8 29  1  0
  9  2  2  0
  9 30  1  0
 10  5  1  0
 10 31  1  0
 10 32  1  0
 11 10  1  0
 11 33  1  0
 11 34  1  0
 12 13  1  0
 12 35  1  0
 12 36  1  0
 13 11  1  0
 13 37  1  0
 13 38  1  0
 14  7  1  0
 14 39  1  0
 15 12  1  0
 15 40  1  0
 15 41  1  0
 15 42  1  0
 16  9  1  0
 16 14  2  0
 16 43  1  0
 17 18  1  0
 17 44  1  0
 18 19  1  0
 18 45  1  0
 18 46  1  0
 19 20  1  0
 19 47  1  0
 19 48  1  0
 20 21  1  0
 20 49  1  0
 20 50  1  0
 21 22  1  0
 21 23  2  0
M  CHG  1  22  -1
M  END
> <Name>
CHEMBL2113105

> <Clean Energy>
27.456699

> <chembl_id>
CHEMBL2113105

> <chembl_pref_name>
None

> <efficacy>
0.13

> <Forcefield>
MMFF

> <ForcefieldBase>
MMFF

> <ForcefieldFFML>
<?xml version="1.0" encoding="UTF-8"?>
<!DOCTYPE ffml SYSTEM "Ffml.dtd">
<ffml version="1.0">
<forcefield name="MMFF" derivedFrom="MMFF" base="MMFF">
<atomTypes>
<atomType
name="C100"
element="C"
mass="12.011"
annotation=""/>
<atomType
name="O101"
element="O"
mass="16"
annotation=""/>
<atomType
name="H102"
element="H"
mass="1.008"
annotation=""/>
</atomTypes>
<parameters>
</parameters>
</forcefield>
</ffml>

> <Initial Potential Energy>
164.28044

> <Initial RMS Gradient>
32.39962

> <Minimization Criteria>
CONJUG> Minimization exiting with gradient tolerance ( 0.0100000) satisfied.

> <CHARMm Energy>
45.94998

> <Potential Energy>
45.94998

> <RMS Gradient>
0.00938

> <Bond Energy>
5.01627

> <Angle Energy>
13.27329

> <STRBend>
0.37737

> <Dihedral Energy>
-13.52427

> <OOPLane>
0.00628

> <Van der Waals Energy>
34.80049

> <Electrostatic Energy>
6.00055

> <Hydrogen Bond Energy>
0

> <Solvation Free Energy>
0

> <HasGasteigerCharges>
true

> <REMARK99>
REMARK  99  MacroMolecule created from Mol2 file
REMARK  99  CHEMBL2113105
REMARK  99  PROTEIN
REMARK  99  GASTEIGER
REMARK  99
REMARK  99

$$$$
CHEMBL1828826
  SciTegic05292516403D

 48 49  0  0  0  0            999 V2000
   26.6136   -8.2921   -1.3316 C   0  0
   26.6141   -7.5255    0.0007 C   0  0
   26.5801   -8.5055    1.1848 C   0  0
   18.0270   -4.7593    0.1688 C   0  0
   18.0830   -6.1492    0.0185 C   0  0
   19.3162   -6.8072   -0.0393 C   0  0
   20.5105   -6.0915    0.0626 C   0  0
   20.4621   -4.7088    0.2295 C   0  0
   19.2281   -4.0492    0.2879 C   0  0
   21.6436   -6.8526   -0.0088 O   0  0
   22.8913   -6.1635    0.0787 C   0  0
   24.0068   -7.2075   -0.0166 C   0  0
   25.3924   -6.5584    0.0677 C   0  0
   27.8962   -6.6749    0.0885 C   0  0
   29.0500   -7.3796    0.0536 O   0  0
   27.9080   -5.4555    0.1805 O   0  0
   16.7133   -4.1053    0.2548 C   0  0
   16.4461   -2.8896   -0.2503 C   0  0
   15.1328   -2.2376   -0.1604 C   0  0
   15.0766   -0.8518    0.0367 C   0  0
   13.8472   -0.1912    0.0998 C   0  0
   12.6610   -0.9076   -0.0452 C   0  0
   12.7063   -2.2844   -0.2576 C   0  0
   13.9352   -2.9455   -0.3206 C   0  0
   25.7392   -8.9440   -1.4246 H   0  0
   27.4953   -8.9328   -1.4383 H   0  0
   26.6152   -7.5998   -2.1812 H   0  0
   26.5643   -7.9660    2.1387 H   0  0
   27.4563   -9.1621    1.2020 H   0  0
   25.7018   -9.1576    1.1475 H   0  0
   17.1692   -6.7329   -0.0641 H   0  0
   19.3468   -7.8874   -0.1639 H   0  0
   21.3621   -4.1104    0.3241 H   0  0
   19.2233   -2.9726    0.4399 H   0  0
   22.9867   -5.4506   -0.7492 H   0  0
   22.9665   -5.6397    1.0392 H   0  0
   23.8673   -7.9394    0.7865 H   0  0
   23.8899   -7.7580   -0.9566 H   0  0
   25.4762   -5.8218   -0.7436 H   0  0
   25.4474   -5.9814    1.0015 H   0  0
   28.9397   -8.3440   -0.0255 H   0  0
   15.9395   -4.6775    0.7613 H   0  0
   17.2171   -2.3135   -0.7564 H   0  0
   15.9911   -0.2746    0.1521 H   0  0
   13.8178    0.8831    0.2609 H   0  0
   11.7039   -0.3936    0.0021 H   0  0
   11.7850   -2.8472   -0.3809 H   0  0
   13.9448   -4.0162   -0.5079 H   0  0
  1 25  1  0
  1 26  1  0
  1 27  1  0
  2  1  1  0
  2 14  1  0
  3  2  1  0
  3 28  1  0
  3 29  1  0
  3 30  1  0
  4  5  2  0
  4 17  1  0
  5  6  1  0
  5 31  1  0
  6  7  2  0
  6 32  1  0
  7  8  1  0
  7 10  1  0
  8  9  2  0
  8 33  1  0
  9  4  1  0
  9 34  1  0
 10 11  1  0
 11 12  1  0
 11 35  1  0
 11 36  1  0
 12 13  1  0
 12 37  1  0
 12 38  1  0
 13  2  1  0
 13 39  1  0
 13 40  1  0
 14 15  1  0
 14 16  2  0
 15 41  1  0
 17 18  2  0
 17 42  1  0
 18 19  1  0
 18 43  1  0
 19 20  2  0
 20 21  1  0
 20 44  1  0
 21 22  2  0
 21 45  1  0
 22 23  1  0
 22 46  1  0
 23 24  2  0
 23 47  1  0
 24 19  1  0
 24 48  1  0
M  END
> <Name>
CHEMBL1828826

> <Clean Energy>
9.92876

> <chembl_id>
CHEMBL1828826

> <chembl_pref_name>
None

> <efficacy>
0.25

> <Forcefield>
MMFF

> <ForcefieldBase>
MMFF

> <ForcefieldFFML>
<?xml version="1.0" encoding="UTF-8"?>
<!DOCTYPE ffml SYSTEM "Ffml.dtd">
<ffml version="1.0">
<forcefield name="MMFF" derivedFrom="MMFF" base="MMFF">
<atomTypes>
<atomType
name="C100"
element="C"
mass="12.011"
annotation=""/>
<atomType
name="O101"
element="O"
mass="16"
annotation=""/>
<atomType
name="H102"
element="H"
mass="1.008"
annotation=""/>
</atomTypes>
<parameters>
</parameters>
</forcefield>
</ffml>

> <Initial Potential Energy>
86.56521

> <Initial RMS Gradient>
25.16881

> <Minimization Criteria>
CONJUG> Minimization exiting with gradient tolerance ( 0.0100000) satisfied.

> <CHARMm Energy>
38.34135

> <Potential Energy>
38.34135

> <RMS Gradient>
0.009

> <Bond Energy>
5.35747

> <Angle Energy>
10.78054

> <STRBend>
0.40024

> <Dihedral Energy>
1.73162

> <OOPLane>
0.02435

> <Van der Waals Energy>
51.19153

> <Electrostatic Energy>
-31.1444

> <Hydrogen Bond Energy>
0

> <Solvation Free Energy>
0

> <HasGasteigerCharges>
true

> <REMARK99>
REMARK  99  MacroMolecule created from Mol2 file
REMARK  99  CHEMBL1828826
REMARK  99  PROTEIN
REMARK  99  GASTEIGER
REMARK  99
REMARK  99

$$$$
CHEMBL359548
  SciTegic05292516403D

 62 65  0  0  0  0            999 V2000
   -0.4118   -1.7201    0.2524 N   0  0
    0.7981   -1.0663   -0.0498 C   0  0
    0.5076    0.2602   -0.3816 C   0  0
   -1.3639   -0.7329    0.5122 C   0  0
   -0.8578    0.4724    0.0272 C   0  0
   -0.6401   -3.1298    0.2803 C   0  0
   -5.1402    2.5721    0.6166 C   0  0
    6.4572    4.3164    0.0879 C   0  0
   -2.6342   -0.7941    1.1140 C   0  0
    1.3082    1.3652   -1.0388 C   0  0
   -1.9688   -3.7914    0.2732 C   0  0
   -1.7025    1.6114    0.0345 C   0  0
    5.4928    2.3421    1.2672 O   0  0
    6.6852    3.0887    0.9884 C   0  0  2  0  0  0
   -3.7299    2.6939    0.4864 O   0  0
    0.3310   -3.8860    0.2693 O   0  0
   -2.9998    1.5398    0.5596 C   0  0
    5.3524    4.7458   -0.2253 O   0  0
    4.8986    1.7215    0.1989 C   0  0
    2.7985    1.1976   -0.9232 C   0  0
   -2.2350   -4.7789    1.2253 C   0  0
   -2.9255   -3.4954   -0.7058 C   0  0
   -5.7411    3.7462    0.2911 F   0  0
   -5.5196    2.2779    1.8864 F   0  0
   -5.6594    1.6273   -0.2098 F   0  0
   -3.4346    0.3522    1.1288 C   0  0
    3.5025    1.7692    0.1513 C   0  0
    2.0959   -1.8098   -0.0618 C   0  0
    7.6101    4.8941   -0.3457 O   0  0
   -4.4402   -5.1268    0.2613 C   0  0
   -4.1618   -4.1587   -0.7056 C   0  0
   -3.4708   -5.4305    1.2221 C   0  0
   -5.5988   -5.8439    0.3790 O   0  0
    4.9154    0.4563   -1.8642 C   0  0
    5.5974    1.0388   -0.7946 C   0  0
    3.5256    0.5517   -1.9380 C   0  0
    7.2096    3.5669    2.3403 C   0  0
   -6.6035   -5.6286   -0.6049 C   0  0
    7.4423    2.4419    0.5330 H   0  0
   -3.0228   -1.7037    1.5657 H   0  0
    1.0249    1.4175   -2.0982 H   0  0
    1.0348    2.3364   -0.6073 H   0  0
   -1.3419    2.5561   -0.3648 H   0  0
   -1.4883   -5.0480    1.9689 H   0  0
   -2.7216   -2.7539   -1.4755 H   0  0
   -4.4124    0.2631    1.5970 H   0  0
    2.9666    2.3002    0.9353 H   0  0
    2.9440   -1.1539    0.1313 H   0  0
    2.2465   -2.3122   -1.0217 H   0  0
    2.1470   -2.5458    0.7459 H   0  0
    8.4173    4.4313   -0.0551 H   0  0
   -4.8816   -3.8986   -1.4752 H   0  0
   -3.6764   -6.1899    1.9722 H   0  0
    5.4763   -0.0673   -2.6382 H   0  0
    6.6734    0.9262   -0.7562 H   0  0
    3.0048    0.1093   -2.7847 H   0  0
    7.3724    2.7164    3.0112 H   0  0
    6.4817    4.2241    2.8300 H   0  0
    8.1504    4.1171    2.2412 H   0  0
   -7.4436   -6.2914   -0.3767 H   0  0
   -6.2370   -5.8840   -1.6046 H   0  0
   -6.9712   -4.5979   -0.5710 H   0  0
  2  1  1  0
  3  2  2  0
  3  5  1  0
  4  1  1  0
  5  4  1  0
  6  1  1  0
  7 15  1  0
  8 14  1  0
  9  4  2  0
  9 40  1  0
 10  3  1  0
 10 41  1  0
 10 42  1  0
 11  6  1  0
 12  5  2  0
 12 43  1  0
 13 19  1  0
 14 13  1  0
 14 37  1  0
 14 39  1  0
 15 17  1  0
 16  6  2  0
 17 12  1  0
 17 26  2  0
 18  8  2  0
 19 27  2  0
 20 10  1  0
 21 11  1  0
 21 44  1  0
 22 11  2  0
 22 45  1  0
 23  7  1  0
 24  7  1  0
 25  7  1  0
 26  9  1  0
 26 46  1  0
 27 20  1  0
 27 47  1  0
 28  2  1  0
 28 48  1  0
 28 49  1  0
 28 50  1  0
 29  8  1  0
 29 51  1  0
 30 31  2  0
 30 32  1  0
 31 22  1  0
 31 52  1  0
 32 21  2  0
 32 53  1  0
 33 30  1  0
 34 36  1  0
 34 54  1  0
 35 19  1  0
 35 34  2  0
 35 55  1  0
 36 20  2  0
 36 56  1  0
 37 57  1  0
 37 58  1  0
 37 59  1  0
 38 33  1  0
 38 60  1  0
 38 61  1  0
 38 62  1  0
M  END
> <Name>
CHEMBL359548

> <Clean Energy>
79.775803

> <chembl_id>
CHEMBL359548

> <chembl_pref_name>
None

> <efficacy>
0.34

> <Forcefield>
MMFF

> <ForcefieldBase>
MMFF

> <ForcefieldFFML>
<?xml version="1.0" encoding="UTF-8"?>
<!DOCTYPE ffml SYSTEM "Ffml.dtd">
<ffml version="1.0">
<forcefield name="MMFF" derivedFrom="MMFF" base="MMFF">
<atomTypes>
<atomType
name="N100"
element="N"
mass="14.007"
annotation=""/>
<atomType
name="C101"
element="C"
mass="12.011"
annotation=""/>
<atomType
name="O102"
element="O"
mass="16"
annotation=""/>
<atomType
name="F103"
element="F"
mass="18.998"
annotation=""/>
<atomType
name="H104"
element="H"
mass="1.008"
annotation=""/>
</atomTypes>
<parameters>
</parameters>
</forcefield>
</ffml>

> <Initial Potential Energy>
898.83449

> <Initial RMS Gradient>
284.4978

> <Minimization Criteria>
CONJUG> Minimization exiting with gradient tolerance ( 0.0100000) satisfied.

> <CHARMm Energy>
136.02756

> <Potential Energy>
136.02756

> <RMS Gradient>
0.00972

> <Bond Energy>
9.70081

> <Angle Energy>
31.90418

> <STRBend>
-0.1317

> <Dihedral Energy>
13.95328

> <OOPLane>
0.14626

> <Van der Waals Energy>
71.68156

> <Electrostatic Energy>
8.77318

> <Hydrogen Bond Energy>
0

> <Solvation Free Energy>
0

> <HasGasteigerCharges>
true

> <REMARK99>
REMARK  99  MacroMolecule created from Mol2 file
REMARK  99  CHEMBL359548
REMARK  99  PROTEIN
REMARK  99  GASTEIGER
REMARK  99
REMARK  99

$$$$
CHEMBL178245
  SciTegic05292516403D

 55 58  0  0  0  0            999 V2000
   -0.8222   -1.7042   -0.4747 N   0  0
    0.3327   -1.0376   -0.9022 C   0  0
    0.1323    0.3328   -0.7889 C   0  0
   -1.7011   -0.7442    0.0440 C   0  0
   -1.1597    0.5177   -0.2135 C   0  0
   -1.0562   -3.1066   -0.5497 C   0  0
   -2.9171   -0.8635    0.7428 C   0  0
    1.0594    1.4373   -1.2089 C   0  0
   -2.3849   -3.7593   -0.5108 C   0  0
   -1.8976    1.6706    0.1439 C   0  0
    5.9868    4.4504   -0.8784 C   0  0
   -0.0905   -3.8593   -0.6755 O   0  0
    2.1396    1.6065   -0.1620 C   0  0
    4.9171    4.5000   -1.4724 O   0  0
   -3.4189   -3.3441   -1.3608 C   0  0
   -2.5745   -4.8483    0.3490 C   0  0
    5.7679    2.0664   -0.1542 O   0  0
    1.5303   -1.7566   -1.4351 C   0  0
   -3.1345    1.5561    0.7816 C   0  0
    6.4179    3.3178    0.0590 C   0  0
   -3.6189    0.2959    1.0956 C   0  0
    3.4745    1.7303   -0.5801 C   0  0
   -4.8480   -5.0584   -0.4358 C   0  0
    4.4944    1.9962    0.3362 C   0  0
    6.9139    5.4448   -0.9757 O   0  0
   -4.6555   -3.9919   -1.3148 C   0  0
   -3.8124   -5.4922    0.3922 C   0  0
   -6.3745   -5.8479   -0.3780 Cl  0  0
   -3.7554    2.7424    1.0605 O   0  0
    2.8899    1.9821    2.1271 C   0  0
    1.8618    1.7567    1.2064 C   0  0
    4.2107    2.0937    1.6939 C   0  0
   -5.0656    2.6733    1.6072 C   0  0
   -3.3358   -1.8240    1.0285 H   0  0
    1.4922    1.1923   -2.1863 H   0  0
    0.5286    2.3881   -1.3293 H   0  0
   -1.4980    2.6600   -0.0634 H   0  0
   -3.2708   -2.5225   -2.0591 H   0  0
   -1.7585   -5.1934    0.9816 H   0  0
    2.2932   -1.0574   -1.7898 H   0  0
    1.2595   -2.3913   -2.2849 H   0  0
    1.9918   -2.3693   -0.6544 H   0  0
    7.4809    3.1286   -0.1282 H   0  0
    6.3234    3.6617    1.0950 H   0  0
   -4.5570    0.1673    1.6251 H   0  0
    3.7314    1.6587   -1.6353 H   0  0
    7.7162    5.3131   -0.4369 H   0  0
   -5.4608   -3.6657   -1.9685 H   0  0
   -3.9587   -6.3322    1.0663 H   0  0
    2.6590    2.0747    3.1854 H   0  0
    0.8392    1.6933    1.5723 H   0  0
    5.0015    2.2374    2.4217 H   0  0
   -5.4384    3.6967    1.7127 H   0  0
   -5.0521    2.2203    2.6039 H   0  0
   -5.7477    2.1380    0.9383 H   0  0
  2  1  1  0
  3  2  2  0
  3  5  1  0
  4  1  1  0
  5  4  1  0
  6  1  1  0
  7  4  2  0
  7 34  1  0
  8  3  1  0
  8 35  1  0
  8 36  1  0
  9  6  1  0
 10  5  2  0
 10 37  1  0
 11 20  1  0
 12  6  2  0
 13  8  1  0
 14 11  2  0
 15  9  2  0
 15 38  1  0
 16  9  1  0
 16 39  1  0
 17 24  1  0
 18  2  1  0
 18 40  1  0
 18 41  1  0
 18 42  1  0
 19 10  1  0
 19 21  2  0
 20 17  1  0
 20 43  1  0
 20 44  1  0
 21  7  1  0
 21 45  1  0
 22 13  1  0
 22 46  1  0
 23 26  2  0
 23 27  1  0
 24 22  2  0
 25 11  1  0
 25 47  1  0
 26 15  1  0
 26 48  1  0
 27 16  2  0
 27 49  1  0
 28 23  1  0
 29 19  1  0
 30 31  1  0
 30 50  1  0
 31 13  2  0
 31 51  1  0
 32 24  1  0
 32 30  2  0
 32 52  1  0
 33 29  1  0
 33 53  1  0
 33 54  1  0
 33 55  1  0
M  END
> <Name>
CHEMBL178245

> <Clean Energy>
54.7686

> <chembl_id>
CHEMBL178245

> <chembl_pref_name>
None

> <efficacy>
0.25

> <Forcefield>
MMFF

> <ForcefieldBase>
MMFF

> <ForcefieldFFML>
<?xml version="1.0" encoding="UTF-8"?>
<!DOCTYPE ffml SYSTEM "Ffml.dtd">
<ffml version="1.0">
<forcefield name="MMFF" derivedFrom="MMFF" base="MMFF">
<atomTypes>
<atomType
name="N100"
element="N"
mass="14.007"
annotation=""/>
<atomType
name="C101"
element="C"
mass="12.011"
annotation=""/>
<atomType
name="O102"
element="O"
mass="16"
annotation=""/>
<atomType
name="Cl103"
element="Cl"
mass="35.453"
annotation=""/>
<atomType
name="H104"
element="H"
mass="1.008"
annotation=""/>
</atomTypes>
<parameters>
</parameters>
</forcefield>
</ffml>

> <Initial Potential Energy>
933.71497

> <Initial RMS Gradient>
334.83256

> <Minimization Criteria>
STEEPD> Minimization exiting with gradient tolerance ( 3.0000000) satisfied.

> <CHARMm Energy>
133.62809

> <Potential Energy>
133.62809

> <RMS Gradient>
0.03484

> <Bond Energy>
8.25712

> <Angle Energy>
18.71952

> <STRBend>
-0.25777

> <Dihedral Energy>
12.93269

> <OOPLane>
0.15364

> <Van der Waals Energy>
63.64759

> <Electrostatic Energy>
30.1753

> <Hydrogen Bond Energy>
0

> <Solvation Free Energy>
0

> <HasGasteigerCharges>
true

> <REMARK99>
REMARK  99  MacroMolecule created from Mol2 file
REMARK  99  CHEMBL178245
REMARK  99  PROTEIN
REMARK  99  GASTEIGER
REMARK  99
REMARK  99

$$$$
CHEMBL3358036
  SciTegic05292516403D

 64 64  0  0  0  0            999 V2000
    0.5424    1.0721    0.2209 O   0  0
    2.0335   -0.5957   -0.5052 C   0  0
   -0.3443   -0.5054   -1.2762 C   0  0
    0.8960    0.2491   -0.8841 C   0  0  1  0  0  0
   -0.5379   -1.8304   -1.3423 C   0  0
    2.9767   -1.2558   -0.1617 C   0  0
    4.0522   -1.9872    0.2774 C   0  0
    4.9866   -2.6050    0.7113 C   0  0
    6.1107   -3.3415    1.3173 C   0  0  2  0  0  0
    7.3765   -2.5202    1.1141 C   0  0
    8.4943   -2.7525    0.4017 C   0  0
    8.7778   -3.9260   -0.4918 C   0  0
    9.4694   -5.0622    0.2625 C   0  0
    9.6639   -6.2845   -0.6368 C   0  0
   10.3053   -7.4419    0.1298 C   0  0
   10.4787   -8.6719   -0.7626 C   0  0
   11.1144   -9.8291    0.0072 C   0  0
   11.2868  -11.0566   -0.8729 C   0  0
    6.1954   -4.6744    0.7721 O   0  0
    5.3269   -5.5613    1.3296 C   0  0
    5.4586   -6.8997    0.6886 C   0  0
    4.5379   -5.3188    2.2312 O   0  0
    4.5853   -7.8677    1.0292 C   0  0
    4.5258   -9.2674    0.5463 C   0  0
    3.2853   -9.9436    0.6051 C   0  0
    3.1738  -11.3031    0.2622 C   0  0
    4.3192  -11.9889   -0.1471 C   0  0
    5.5502  -11.3430   -0.2199 C   0  0
    5.6543   -9.9861    0.1297 C   0  0
    2.0304  -12.0676    0.3044 O   0  0
    0.8353  -11.3688    0.6362 C   0  0
    4.2592  -13.3203   -0.4761 O   0  0
    0.3697    0.4646    0.9606 H   0  0
   -1.1844    0.1381   -1.5401 H   0  0
    1.1825    0.9097   -1.7092 H   0  0
    0.2423   -2.5454   -1.1002 H   0  0
   -1.4984   -2.2391   -1.6443 H   0  0
    5.9738   -3.4072    2.4050 H   0  0
    7.3651   -1.5887    1.6854 H   0  0
    9.2935   -2.0103    0.4524 H   0  0
    7.8579   -4.2798   -0.9694 H   0  0
    9.4199   -3.5854   -1.3140 H   0  0
   10.4430   -4.7209    0.6362 H   0  0
    8.8752   -5.3488    1.1392 H   0  0
    8.6937   -6.6051   -1.0355 H   0  0
   10.2927   -6.0146   -1.4939 H   0  0
   11.2813   -7.1285    0.5197 H   0  0
    9.6801   -7.7014    0.9931 H   0  0
    9.5020   -8.9831   -1.1530 H   0  0
   11.1053   -8.4150   -1.6255 H   0  0
   12.0934   -9.5244    0.3952 H   0  0
   10.4900  -10.0898    0.8697 H   0  0
   11.7439  -11.8705   -0.3016 H   0  0
   11.9329  -10.8381   -1.7291 H   0  0
   10.3212  -11.4074   -1.2509 H   0  0
    6.2533   -7.0375   -0.0317 H   0  0
    3.8077   -7.6255    1.7562 H   0  0
    2.4151   -9.3830    0.9375 H   0  0
    6.4303  -11.9008   -0.5308 H   0  0
    6.6371   -9.5225    0.0980 H   0  0
    0.0080  -12.0835    0.5882 H   0  0
    0.6271  -10.5721   -0.0859 H   0  0
    0.8775  -10.9796    1.6588 H   0  0
    3.3354  -13.6084   -0.3297 H   0  0
  1 33  1  0
  2  6  3  0
  3  5  2  0
  3 34  1  0
  4  1  1  0
  4  2  1  0
  4  3  1  0
  4 35  1  0
  5 36  1  0
  5 37  1  0
  6  7  1  0
  7  8  3  0
  8  9  1  0
  9 10  1  0
  9 19  1  0
  9 38  1  0
 10 11  2  0
 10 39  1  0
 11 12  1  0
 11 40  1  0
 12 13  1  0
 12 41  1  0
 12 42  1  0
 13 14  1  0
 13 43  1  0
 13 44  1  0
 14 15  1  0
 14 45  1  0
 14 46  1  0
 15 16  1  0
 15 47  1  0
 15 48  1  0
 16 17  1  0
 16 49  1  0
 16 50  1  0
 17 18  1  0
 17 51  1  0
 17 52  1  0
 18 53  1  0
 18 54  1  0
 18 55  1  0
 19 20  1  0
 20 21  1  0
 20 22  2  0
 21 23  2  0
 21 56  1  0
 23 24  1  0
 23 57  1  0
 24 25  2  0
 25 26  1  0
 25 58  1  0
 26 27  2  0
 26 30  1  0
 27 28  1  0
 27 32  1  0
 28 29  2  0
 28 59  1  0
 29 24  1  0
 29 60  1  0
 30 31  1  0
 31 61  1  0
 31 62  1  0
 31 63  1  0
 32 64  1  0
M  END
> <Name>
CHEMBL3358036

> <Clean Energy>
95.803703

> <chembl_id>
CHEMBL3358036

> <chembl_pref_name>
None

> <efficacy>
0.35080618

> <Forcefield>
MMFF

> <ForcefieldBase>
MMFF

> <ForcefieldFFML>
<?xml version="1.0" encoding="UTF-8"?>
<!DOCTYPE ffml SYSTEM "Ffml.dtd">
<ffml version="1.0">
<forcefield name="MMFF" derivedFrom="MMFF" base="MMFF">
<atomTypes>
<atomType
name="O100"
element="O"
mass="16"
annotation=""/>
<atomType
name="C101"
element="C"
mass="12.011"
annotation=""/>
<atomType
name="H102"
element="H"
mass="1.008"
annotation=""/>
</atomTypes>
<parameters>
</parameters>
</forcefield>
</ffml>

> <Initial Potential Energy>
216.03341

> <Initial RMS Gradient>
22.59894

> <Minimization Criteria>
STEEPD> Minimization exiting with gradient tolerance ( 3.0000000) satisfied.

> <CHARMm Energy>
-4.97538

> <Potential Energy>
-4.97538

> <RMS Gradient>
0.02883

> <Bond Energy>
4.80097

> <Angle Energy>
17.80592

> <STRBend>
0.59497

> <Dihedral Energy>
-14.37459

> <OOPLane>
0.04725

> <Van der Waals Energy>
43.32188

> <Electrostatic Energy>
-57.17178

> <Hydrogen Bond Energy>
0

> <Solvation Free Energy>
0

> <HasGasteigerCharges>
true

> <REMARK99>
REMARK  99  MacroMolecule created from Mol2 file
REMARK  99  CHEMBL3358036
REMARK  99  PROTEIN
REMARK  99  GASTEIGER
REMARK  99
REMARK  99

$$$$
CHEMBL1801735
  SciTegic05292516403D

 59 65  0  0  0  0            999 V2000
   -2.4675  -11.0329   -1.0446 C   0  0
   -2.2852   -9.8487   -0.2985 C   0  0
   -1.3501  -11.8263   -1.5456 C   0  0
   -0.9617   -9.2733   -0.0093 C   0  0
   -0.2617   -8.5714   -1.0150 C   0  0
   -0.3885   -9.3874    1.2693 C   0  0
    0.9794   -7.9827   -0.7646 C   0  0
   -3.7748  -11.4896   -1.3058 C   0  0
   -3.4277   -9.1804    0.1877 C   0  0
   -4.8917  -10.8080   -0.8225 C   0  0
   -4.7163   -9.6560   -0.0677 C   0  0
    1.5063   -8.0722    0.5145 C   0  0
    0.8379   -8.7850    1.5152 C   0  0
    1.6461   -8.8308    2.7740 C   0  0
    2.6519   -7.6903    2.5567 C   0  0
    2.8066   -7.5135    1.0322 C   0  0  2  0  0  0
    3.0642   -6.1483    0.6148 N   0  0
    2.7707   -4.0078    0.0701 N   0  0
    4.2478   -5.7294    0.0541 C   0  0
    2.2254   -5.0534    0.6571 C   0  0
    4.0325   -4.4027   -0.2933 C   0  0
    6.3591   -5.7590   -0.7372 C   0  0
    5.3672   -6.4574   -0.1306 N   0  0
    5.0702   -3.7001   -0.9262 C   0  0
    6.2558   -4.4231   -1.1434 C   0  0
    0.8391   -4.9767    1.2718 C   0  0
    4.9596   -2.2733   -1.3629 C   0  0
   -1.1711  -13.1500   -1.2486 N   0  0
   -0.0977  -13.6351   -1.8831 N   0  0
    0.4016  -12.5983   -2.5421 N   0  0
   -0.3610  -11.4694   -2.3416 N   0  0
    7.6468   -6.4958   -0.9821 C   0  0
    0.2617   -3.6233    1.6134 C   0  0
    0.7024   -4.5443    2.7102 C   0  0
   -0.6868   -8.4929   -2.0149 H   0  0
   -0.8972   -9.9392    2.0556 H   0  0
    1.5047   -7.4590   -1.5586 H   0  0
   -3.9263  -12.3740   -1.9186 H   0  0
   -3.3162   -8.2646    0.7666 H   0  0
   -5.8924  -11.1665   -1.0458 H   0  0
   -5.5762   -9.1107    0.3115 H   0  0
    1.0367   -8.6584    3.6657 H   0  0
    2.1581   -9.7954    2.8541 H   0  0
    2.2666   -6.7807    3.0302 H   0  0
    3.6125   -7.8992    3.0407 H   0  0
    3.6156   -8.1579    0.6670 H   0  0
    7.0993   -3.9420   -1.6326 H   0  0
    0.1255   -5.6940    0.8825 H   0  0
    5.7260   -1.6671   -0.8694 H   0  0
    3.9814   -1.8525   -1.1099 H   0  0
    5.0901   -2.1996   -2.4472 H   0  0
   -1.7141  -13.7480   -0.6422 H   0  0
    7.8592   -6.5386   -2.0549 H   0  0
    7.5859   -7.5216   -0.6048 H   0  0
    8.4730   -5.9929   -0.4698 H   0  0
    0.8604   -2.7383    1.4216 H   0  0
   -0.8002   -3.4802    1.4558 H   0  0
   -0.0609   -5.0248    3.3100 H   0  0
    1.5956   -4.2661    3.2600 H   0  0
  1  2  1  0
  2  4  1  0
  3  1  1  0
  3 28  1  0
  4  5  2  0
  5  7  1  0
  5 35  1  0
  6  4  1  0
  6 13  2  0
  6 36  1  0
  7 12  2  0
  7 37  1  0
  8  1  2  0
  8 10  1  0
  8 38  1  0
  9  2  2  0
  9 39  1  0
 10 11  2  0
 10 40  1  0
 11  9  1  0
 11 41  1  0
 12 13  1  0
 13 14  1  0
 14 15  1  0
 14 42  1  0
 14 43  1  0
 15 16  1  0
 15 44  1  0
 15 45  1  0
 16 12  1  0
 16 17  1  0
 16 46  1  0
 17 19  1  0
 18 20  2  0
 18 21  1  0
 19 21  2  0
 19 23  1  0
 20 17  1  0
 21 24  1  0
 22 32  1  0
 23 22  2  0
 24 25  2  0
 25 22  1  0
 25 47  1  0
 26 20  1  0
 26 34  1  0
 26 48  1  0
 27 24  1  0
 27 49  1  0
 27 50  1  0
 27 51  1  0
 28 29  1  0
 28 52  1  0
 29 30  2  0
 30 31  1  0
 31  3  2  0
 32 53  1  0
 32 54  1  0
 32 55  1  0
 33 26  1  0
 33 56  1  0
 33 57  1  0
 34 33  1  0
 34 58  1  0
 34 59  1  0
M  END
> <Name>
CHEMBL1801735

> <Clean Energy>
122.355003

> <chembl_id>
CHEMBL1801735

> <chembl_pref_name>
None

> <efficacy>
0.260869565

> <Forcefield>
MMFF

> <ForcefieldBase>
MMFF

> <ForcefieldFFML>
<?xml version="1.0" encoding="UTF-8"?>
<!DOCTYPE ffml SYSTEM "Ffml.dtd">
<ffml version="1.0">
<forcefield name="MMFF" derivedFrom="MMFF" base="MMFF">
<atomTypes>
<atomType
name="C100"
element="C"
mass="12.011"
annotation=""/>
<atomType
name="N101"
element="N"
mass="14.007"
annotation=""/>
<atomType
name="H102"
element="H"
mass="1.008"
annotation=""/>
</atomTypes>
<parameters>
</parameters>
</forcefield>
</ffml>

> <Initial Potential Energy>
258.33345

> <Initial RMS Gradient>
40.29902

> <Minimization Criteria>
STEEPD> Minimization exiting with gradient tolerance ( 3.0000000) satisfied.

> <CHARMm Energy>
95.9877

> <Potential Energy>
95.9877

> <RMS Gradient>
0.04148

> <Bond Energy>
6.7863

> <Angle Energy>
12.68961

> <STRBend>
-0.74934

> <Dihedral Energy>
18.93617

> <OOPLane>
0.03521

> <Van der Waals Energy>
52.56941

> <Electrostatic Energy>
5.72033

> <Hydrogen Bond Energy>
0

> <Solvation Free Energy>
0

> <HasGasteigerCharges>
true

> <REMARK99>
REMARK  99  MacroMolecule created from Mol2 file
REMARK  99  CHEMBL1801735
REMARK  99  PROTEIN
REMARK  99  GASTEIGER
REMARK  99
REMARK  99

$$$$
CHEMBL3597314
  SciTegic05292516403D

 40 42  0  0  0  0            999 V2000
   -2.1475    1.1187    0.0926 C   0  0
   -2.2346   -0.2741    0.1193 C   0  0
   -1.1073   -1.0876   -0.0453 C   0  0
   -0.9012    1.7330   -0.0842 C   0  0
    0.2587    0.9356   -0.2517 C   0  0
    0.1233   -0.4533   -0.2331 C   0  0
    1.3721   -0.9932   -0.4334 N   0  0
    2.2995    0.0046   -0.5627 C   0  0
    1.6516    1.2212   -0.4465 C   0  0
    2.2969    2.5727   -0.5134 C   0  0
    3.2379    2.8790    0.6347 C   0  0
    2.9727    2.2603    1.8084 O   0  0
    4.1648    3.6744    0.5341 O   0  0
   -3.3452    1.7634    0.2582 O   0  0
   -3.3665    3.1802    0.0758 C   0  0
   -4.8144    3.6662    0.1853 C   0  0
   -4.8459    5.0820   -0.0063 O   0  0
   -6.0693    5.6968    0.0264 C   0  0
   -6.0363    7.0754   -0.2131 C   0  0
   -7.2075    7.8324   -0.2084 C   0  0
   -8.4311    7.2126    0.0348 C   0  0
   -8.4705    5.8402    0.2741 C   0  0
   -7.2965    5.0788    0.2734 C   0  0
   -9.9842    5.0763    0.5789 Cl  0  0
   -3.2040   -0.7473    0.2638 H   0  0
   -1.1995   -2.1686   -0.0320 H   0  0
   -0.8003    2.8116   -0.1000 H   0  0
    1.5712   -1.9845   -0.4810 H   0  0
    3.3440   -0.2373   -0.7256 H   0  0
    2.8756    2.6314   -1.4432 H   0  0
    1.5412    3.3645   -0.5383 H   0  0
    2.1974    1.6653    1.7715 H   0  0
   -2.7612    3.6746    0.8454 H   0  0
   -2.9711    3.4510   -0.9112 H   0  0
   -5.4196    3.1605   -0.5776 H   0  0
   -5.2063    3.4037    1.1759 H   0  0
   -5.0837    7.5661   -0.4037 H   0  0
   -7.1654    8.9021   -0.3954 H   0  0
   -9.3445    7.8003    0.0378 H   0  0
   -7.3639    4.0151    0.4714 H   0  0
  1  2  2  0
  1 14  1  0
  2  3  1  0
  2 25  1  0
  3  6  2  0
  3 26  1  0
  4  1  1  0
  4 27  1  0
  5  4  2  0
  5  6  1  0
  6  7  1  0
  7  8  1  0
  7 28  1  0
  8  9  2  0
  8 29  1  0
  9  5  1  0
  9 10  1  0
 10 11  1  0
 10 30  1  0
 10 31  1  0
 11 12  1  0
 11 13  2  0
 12 32  1  0
 14 15  1  0
 15 16  1  0
 15 33  1  0
 15 34  1  0
 16 17  1  0
 16 35  1  0
 16 36  1  0
 17 18  1  0
 18 19  2  0
 19 20  1  0
 19 37  1  0
 20 21  2  0
 20 38  1  0
 21 22  1  0
 21 39  1  0
 22 23  2  0
 22 24  1  0
 23 18  1  0
 23 40  1  0
M  END
> <Name>
CHEMBL3597314

> <Clean Energy>
22.8263

> <chembl_id>
CHEMBL3597314

> <chembl_pref_name>
None

> <efficacy>
0.168

> <Forcefield>
MMFF

> <ForcefieldBase>
MMFF

> <ForcefieldFFML>
<?xml version="1.0" encoding="UTF-8"?>
<!DOCTYPE ffml SYSTEM "Ffml.dtd">
<ffml version="1.0">
<forcefield name="MMFF" derivedFrom="MMFF" base="MMFF">
<atomTypes>
<atomType
name="C100"
element="C"
mass="12.011"
annotation=""/>
<atomType
name="N101"
element="N"
mass="14.007"
annotation=""/>
<atomType
name="O102"
element="O"
mass="16"
annotation=""/>
<atomType
name="Cl103"
element="Cl"
mass="35.453"
annotation=""/>
<atomType
name="H104"
element="H"
mass="1.008"
annotation=""/>
</atomTypes>
<parameters>
</parameters>
</forcefield>
</ffml>

> <Initial Potential Energy>
106.6696

> <Initial RMS Gradient>
30.30283

> <Minimization Criteria>
CONJUG> Minimization exiting with gradient tolerance ( 0.0100000) satisfied.

> <CHARMm Energy>
42.83652

> <Potential Energy>
42.83652

> <RMS Gradient>
0.0097

> <Bond Energy>
3.84102

> <Angle Energy>
17.21821

> <STRBend>
-0.56361

> <Dihedral Energy>
-2.54525

> <OOPLane>
0.0407

> <Van der Waals Energy>
40.89657

> <Electrostatic Energy>
-16.05111

> <Hydrogen Bond Energy>
0

> <Solvation Free Energy>
0

> <HasGasteigerCharges>
true

> <REMARK99>
REMARK  99  MacroMolecule created from Mol2 file
REMARK  99  CHEMBL3597314
REMARK  99  PROTEIN
REMARK  99  GASTEIGER
REMARK  99
REMARK  99

$$$$
CHEMBL2260193
  SciTegic05292516403D

 63 68  0  0  0  0            999 V2000
    2.5370  -18.8490   -1.3812 C   0  0
    2.0873  -19.7342   -0.3914 C   0  0
    3.0005  -20.5591    0.2871 C   0  0
    3.8985  -18.7223   -1.6793 C   0  0
    4.8140  -19.5250   -0.9885 C   0  0
    4.3572  -20.4295   -0.0372 C   0  0
    5.4961  -21.0806    0.3854 N   0  0
    6.5708  -20.5312   -0.2823 C   0  0
    6.1735  -19.5878   -1.1124 N   0  0
    5.5472  -22.1424    1.3831 C   0  0
    4.9032  -23.4401    0.9461 C   0  0
    4.8599  -23.8587   -0.3908 C   0  0
    4.2749  -25.0816   -0.7395 C   0  0
    3.7463  -25.9386    0.2372 C   0  0
    3.8106  -25.5266    1.5757 C   0  0
    4.3817  -24.2984    1.9261 C   0  0
    3.1618  -27.2430   -0.1232 C   0  0
    1.8119  -27.5127    0.1688 C   0  0
    1.2267  -28.7410   -0.1686 C   0  0
    1.9717  -29.7273   -0.8142 C   0  0
    3.3058  -29.4807   -1.1270 C   0  0
    3.8952  -28.2566   -0.7712 C   0  0
    5.3160  -28.0807   -1.1161 C   0  0
    6.0436  -28.0551    0.0268 O   0  0
    5.7356  -28.0381   -2.2600 O   0  0
    7.4538  -27.9847   -0.1883 C   0  0
    7.9784  -20.9644   -0.0964 C   0  0
    0.6608  -19.8578   -0.0871 C   0  0
   -0.1941  -18.8106    0.1976 N   0  0
    0.0128  -21.0078   -0.0240 N   0  0
   -1.2988  -20.6902    0.2074 C   0  0
   -1.4649  -19.3158    0.3447 C   0  0
   -2.7117  -18.7255    0.5816 C   0  0
   -3.8133  -19.5828    0.6743 C   0  0
   -3.6693  -20.9641    0.5421 C   0  0
   -2.4145  -21.5332    0.3106 C   0  0
    0.1685  -17.4224    0.3613 C   0  0
    1.8256  -18.2655   -1.9589 H   0  0
    2.6536  -21.2848    1.0172 H   0  0
    4.2464  -18.0414   -2.4469 H   0  0
    6.5905  -22.3322    1.6519 H   0  0
    5.0417  -21.7428    2.2711 H   0  0
    5.2735  -23.2433   -1.1884 H   0  0
    4.2487  -25.3657   -1.7915 H   0  0
    3.4362  -26.1783    2.3635 H   0  0
    4.4235  -24.0253    2.9790 H   0  0
    1.1986  -26.7550    0.6548 H   0  0
    0.1810  -28.9210    0.0676 H   0  0
    1.5132  -30.6775   -1.0795 H   0  0
    3.8940  -30.2331   -1.6455 H   0  0
    7.7125  -27.0800   -0.7475 H   0  0
    7.8048  -28.8790   -0.7124 H   0  0
    7.9432  -27.9392    0.7884 H   0  0
    8.6413  -20.4058   -0.7649 H   0  0
    8.0911  -22.0290   -0.3243 H   0  0
    8.3078  -20.7827    0.9312 H   0  0
   -2.8354  -17.6530    0.6835 H   0  0
   -4.7999  -19.1621    0.8491 H   0  0
   -4.5403  -21.6081    0.6146 H   0  0
   -2.3019  -22.6054    0.2006 H   0  0
   -0.5273  -16.9421    1.0536 H   0  0
    0.1192  -16.9378   -0.6166 H   0  0
    1.1750  -17.3519    0.7804 H   0  0
  1  2  2  0
  1 38  1  0
  2  3  1  0
  2 28  1  0
  3  6  2  0
  3 39  1  0
  4  1  1  0
  4 40  1  0
  5  4  2  0
  5  6  1  0
  6  7  1  0
  7  8  1  0
  7 10  1  0
  8  9  2  0
  8 27  1  0
  9  5  1  0
 10 11  1  0
 10 41  1  0
 10 42  1  0
 11 12  2  0
 12 13  1  0
 12 43  1  0
 13 14  2  0
 13 44  1  0
 14 15  1  0
 14 17  1  0
 15 16  2  0
 15 45  1  0
 16 11  1  0
 16 46  1  0
 17 18  2  0
 18 19  1  0
 18 47  1  0
 19 20  2  0
 19 48  1  0
 20 21  1  0
 20 49  1  0
 21 22  2  0
 21 50  1  0
 22 17  1  0
 22 23  1  0
 23 24  1  0
 23 25  2  0
 24 26  1  0
 26 51  1  0
 26 52  1  0
 26 53  1  0
 27 54  1  0
 27 55  1  0
 27 56  1  0
 28 29  1  0
 29 32  1  0
 29 37  1  0
 30 28  2  0
 31 30  1  0
 31 32  2  0
 32 33  1  0
 33 34  2  0
 33 57  1  0
 34 35  1  0
 34 58  1  0
 35 36  2  0
 35 59  1  0
 36 31  1  0
 36 60  1  0
 37 61  1  0
 37 62  1  0
 37 63  1  0
M  END
> <Name>
CHEMBL2260193

> <Clean Energy>
81.076202

> <chembl_id>
CHEMBL2260193

> <chembl_pref_name>
None

> <efficacy>
0.068

> <Forcefield>
MMFF

> <ForcefieldBase>
MMFF

> <ForcefieldFFML>
<?xml version="1.0" encoding="UTF-8"?>
<!DOCTYPE ffml SYSTEM "Ffml.dtd">
<ffml version="1.0">
<forcefield name="MMFF" derivedFrom="MMFF" base="MMFF">
<atomTypes>
<atomType
name="C100"
element="C"
mass="12.011"
annotation=""/>
<atomType
name="N101"
element="N"
mass="14.007"
annotation=""/>
<atomType
name="O102"
element="O"
mass="16"
annotation=""/>
<atomType
name="H103"
element="H"
mass="1.008"
annotation=""/>
</atomTypes>
<parameters>
</parameters>
</forcefield>
</ffml>

> <Initial Potential Energy>
735.7057

> <Initial RMS Gradient>
290.13127

> <Minimization Criteria>
STEEPD> Minimization exiting with gradient tolerance ( 3.0000000) satisfied.

> <CHARMm Energy>
106.41637

> <Potential Energy>
106.41637

> <RMS Gradient>
0.05101

> <Bond Energy>
8.10537

> <Angle Energy>
9.30221

> <STRBend>
-0.87675

> <Dihedral Energy>
17.54911

> <OOPLane>
0.13668

> <Van der Waals Energy>
69.80977

> <Electrostatic Energy>
2.38997

> <Hydrogen Bond Energy>
0

> <Solvation Free Energy>
0

> <HasGasteigerCharges>
true

> <REMARK99>
REMARK  99  MacroMolecule created from Mol2 file
REMARK  99  CHEMBL2260193
REMARK  99  PROTEIN
REMARK  99  GASTEIGER
REMARK  99
REMARK  99

$$$$
CHEMBL2312717
  SciTegic05292516403D

 45 47  0  0  0  0            999 V2000
    5.7828  -11.4454    1.4722 C   0  0
    5.2657  -12.6852    1.1228 C   0  0
    6.0503  -13.5677    0.3812 C   0  0
    7.3640  -13.2222   -0.0297 C   0  0
    7.8967  -11.9594    0.3234 C   0  0
    7.0782  -11.0911    1.0783 C   0  0
    9.2454  -11.4771   -0.0581 C   0  0
   10.4152  -11.9604    0.5490 C   0  0
   11.6826  -11.4096    0.2557 C   0  0
   11.8077  -10.3577   -0.6506 C   0  0
   10.6508   -9.8880   -1.2773 C   0  0
    9.3911  -10.4360   -0.9875 C   0  0
   12.9543   -9.7017   -1.0140 O   0  0
   14.2175  -10.0534   -0.4283 C   0  0  2  0  0  0
   15.1816   -8.8361   -0.4988 C   0  0
   16.2074   -8.8983    0.3995 O   0  0
   15.0874   -7.8845   -1.2626 O   0  0
   14.8277  -11.2213   -1.2241 C   0  0
   16.0321  -11.8424   -0.5572 C   0  0
   17.3209  -11.5645   -1.0338 C   0  0
   18.4407  -12.0836   -0.3858 C   0  0
   18.2874  -12.8901    0.7401 C   0  0
   17.0101  -13.1874    1.2111 C   0  0
   15.8859  -12.6675    0.5655 C   0  0
    8.1559  -14.2373   -0.8233 C   0  0
    7.3928  -15.2958   -1.2457 F   0  0
    8.7321  -13.7309   -1.9485 F   0  0
    9.1715  -14.7896   -0.0979 F   0  0
    5.1895  -10.7434    2.0513 H   0  0
    4.2564  -12.9658    1.4233 H   0  0
    5.6268  -14.5380    0.1147 H   0  0
    7.4624  -10.1136    1.3715 H   0  0
   10.3512  -12.7618    1.2839 H   0  0
   12.5405  -11.8293    0.7679 H   0  0
   10.7233   -9.0719   -1.9940 H   0  0
    8.5146  -10.0235   -1.4858 H   0  0
   14.0810  -10.2746    0.6370 H   0  0
   16.1996   -9.7269    0.9210 H   0  0
   14.0817  -12.0096   -1.3860 H   0  0
   15.0916  -10.8815   -2.2349 H   0  0
   17.4562  -10.9323   -1.9095 H   0  0
   19.4388  -11.8572   -0.7578 H   0  0
   19.1689  -13.2890    1.2409 H   0  0
   16.8826  -13.8305    2.0786 H   0  0
   14.8989  -12.9222    0.9439 H   0  0
  1  2  2  0
  1 29  1  0
  2  3  1  0
  2 30  1  0
  3  4  2  0
  3 31  1  0
  4  5  1  0
  4 25  1  0
  5  6  2  0
  5  7  1  0
  6  1  1  0
  6 32  1  0
  7  8  2  0
  8  9  1  0
  8 33  1  0
  9 10  2  0
  9 34  1  0
 10 11  1  0
 10 13  1  0
 11 12  2  0
 11 35  1  0
 12  7  1  0
 12 36  1  0
 13 14  1  0
 14 15  1  0
 14 18  1  0
 14 37  1  0
 15 16  1  0
 15 17  2  0
 16 38  1  0
 18 19  1  0
 18 39  1  0
 18 40  1  0
 19 20  2  0
 20 21  1  0
 20 41  1  0
 21 22  2  0
 21 42  1  0
 22 23  1  0
 22 43  1  0
 23 24  2  0
 23 44  1  0
 24 19  1  0
 24 45  1  0
 25 26  1  0
 25 27  1  0
 25 28  1  0
M  END
> <Name>
CHEMBL2312717

> <Clean Energy>
40.8153

> <chembl_id>
CHEMBL2312717

> <chembl_pref_name>
None

> <efficacy>
0.32

> <Forcefield>
MMFF

> <ForcefieldBase>
MMFF

> <ForcefieldFFML>
<?xml version="1.0" encoding="UTF-8"?>
<!DOCTYPE ffml SYSTEM "Ffml.dtd">
<ffml version="1.0">
<forcefield name="MMFF" derivedFrom="MMFF" base="MMFF">
<atomTypes>
<atomType
name="C100"
element="C"
mass="12.011"
annotation=""/>
<atomType
name="O101"
element="O"
mass="16"
annotation=""/>
<atomType
name="F102"
element="F"
mass="18.998"
annotation=""/>
<atomType
name="H103"
element="H"
mass="1.008"
annotation=""/>
</atomTypes>
<parameters>
</parameters>
</forcefield>
</ffml>

> <Initial Potential Energy>
195.57003

> <Initial RMS Gradient>
33.05606

> <Minimization Criteria>
CONJUG> Minimization exiting with gradient tolerance ( 0.0100000) satisfied.

> <CHARMm Energy>
89.65923

> <Potential Energy>
89.65923

> <RMS Gradient>
0.00998

> <Bond Energy>
8.40089

> <Angle Energy>
12.97016

> <STRBend>
-0.14565

> <Dihedral Energy>
6.75389

> <OOPLane>
0.04932

> <Van der Waals Energy>
51.58726

> <Electrostatic Energy>
10.04335

> <Hydrogen Bond Energy>
0

> <Solvation Free Energy>
0

> <HasGasteigerCharges>
true

> <REMARK99>
REMARK  99  MacroMolecule created from Mol2 file
REMARK  99  CHEMBL2312717
REMARK  99  PROTEIN
REMARK  99  GASTEIGER
REMARK  99
REMARK  99

$$$$
CHEMBL2331779
  SciTegic05292516403D

 59 61  0  0  0  0            999 V2000
   17.3370  -22.1345   -0.2652 C   0  0
   16.2214  -21.5070    0.4804 C   0  0
   15.2437  -22.2949    1.1021 C   0  0
   14.1825  -21.6864    1.7836 C   0  0
   14.0594  -20.2994    1.7783 C   0  0
   15.0040  -19.5192    1.1125 C   0  0
   16.0970  -20.1104    0.4810 C   0  0
   17.1242  -23.0683   -1.0271 O   0  0
   18.5824  -21.5890   -0.0361 N   0  0
   19.7623  -22.1199   -0.6875 C   0  0
   20.8895  -21.1059   -0.7052 C   0  0
   14.1140  -17.5255   -0.4184 S   0  0
   14.7750  -18.1196    1.0299 N   0  0
   12.4764  -18.2027   -0.4092 C   0  0
   11.4790  -17.5929    0.3471 C   0  0
   10.1960  -18.1470    0.3636 C   0  0
    9.8834  -19.3112   -0.3709 C   0  0
   10.9099  -19.8912   -1.1374 C   0  0
   12.1947  -19.3404   -1.1652 C   0  0
   15.3440  -23.6699    1.0903 O   0  0
   13.8428  -24.0434   -0.7854 C   0  0
   14.2829  -24.3204    0.5064 C   0  0
   13.6339  -25.3104    1.2377 C   0  0
   12.5348  -25.9455    0.6722 C   0  0
   12.1364  -25.5767   -0.6062 C   0  0
   12.7672  -24.6392   -1.3541 N   0  0
   11.6776  -27.1458    1.5501 Cl  0  0
   14.0090  -16.0907   -0.2526 O   0  0
   14.8555  -18.0886   -1.5264 O   0  0
    8.4588  -19.8954   -0.3188 C   0  0
    7.4510  -18.8531   -0.8488 C   0  0
    8.2778  -21.1779   -1.1621 C   0  0
    8.0993  -20.2555    1.1392 C   0  0
   13.4375  -22.2868    2.2997 H   0  0
   13.2110  -19.8345    2.2756 H   0  0
   16.8073  -19.4979   -0.0690 H   0  0
   18.7031  -20.8980    0.6925 H   0  0
   20.0649  -23.0173   -0.1375 H   0  0
   19.5074  -22.4206   -1.7095 H   0  0
   21.7731  -21.5244   -1.1965 H   0  0
   21.1689  -20.8122    0.3120 H   0  0
   20.5918  -20.2002   -1.2439 H   0  0
   15.5118  -17.4995    1.3623 H   0  0
   11.6888  -16.6970    0.9260 H   0  0
    9.4318  -17.6511    0.9609 H   0  0
   10.7393  -20.7848   -1.7335 H   0  0
   12.9654  -19.8147   -1.7698 H   0  0
   14.3528  -23.3184   -1.4142 H   0  0
   13.9735  -25.5645    2.2364 H   0  0
   11.2747  -26.0326   -1.0834 H   0  0
    6.4315  -19.2562   -0.8539 H   0  0
    7.6963  -18.5533   -1.8746 H   0  0
    7.4330  -17.9450   -0.2364 H   0  0
    7.2515  -21.5574   -1.0885 H   0  0
    8.9431  -21.9807   -0.8234 H   0  0
    8.4767  -20.9941   -2.2243 H   0  0
    7.1031  -20.7092    1.2002 H   0  0
    8.0909  -19.3770    1.7936 H   0  0
    8.8177  -20.9706    1.5573 H   0  0
  1  2  1  0
  1  8  2  0
  1  9  1  0
  2  3  1  0
  2  7  2  0
  3  4  2  0
  3 20  1  0
  4  5  1  0
  4 34  1  0
  5  6  2  0
  5 35  1  0
  6  7  1  0
  6 13  1  0
  7 36  1  0
  9 10  1  0
  9 37  1  0
 10 11  1  0
 10 38  1  0
 10 39  1  0
 11 40  1  0
 11 41  1  0
 11 42  1  0
 12 13  1  0
 12 14  1  0
 12 28  2  0
 12 29  2  0
 13 43  1  0
 14 15  1  0
 14 19  2  0
 15 16  2  0
 15 44  1  0
 16 17  1  0
 16 45  1  0
 17 18  2  0
 17 30  1  0
 18 19  1  0
 18 46  1  0
 19 47  1  0
 20 22  1  0
 21 22  1  0
 21 26  2  0
 21 48  1  0
 22 23  2  0
 23 24  1  0
 23 49  1  0
 24 25  2  0
 24 27  1  0
 25 26  1  0
 25 50  1  0
 30 31  1  0
 30 32  1  0
 30 33  1  0
 31 51  1  0
 31 52  1  0
 31 53  1  0
 32 54  1  0
 32 55  1  0
 32 56  1  0
 33 57  1  0
 33 58  1  0
 33 59  1  0
M  END
> <Name>
CHEMBL2331779

> <Clean Energy>
45.8531

> <chembl_id>
CHEMBL2331779

> <chembl_pref_name>
None

> <efficacy>
0

> <Forcefield>
MMFF

> <ForcefieldBase>
MMFF

> <ForcefieldFFML>
<?xml version="1.0" encoding="UTF-8"?>
<!DOCTYPE ffml SYSTEM "Ffml.dtd">
<ffml version="1.0">
<forcefield name="MMFF" derivedFrom="MMFF" base="MMFF">
<atomTypes>
<atomType
name="C100"
element="C"
mass="12.011"
annotation=""/>
<atomType
name="O101"
element="O"
mass="16"
annotation=""/>
<atomType
name="N102"
element="N"
mass="14.007"
annotation=""/>
<atomType
name="S103"
element="S"
mass="32.066"
annotation=""/>
<atomType
name="Cl104"
element="Cl"
mass="35.453"
annotation=""/>
<atomType
name="H105"
element="H"
mass="1.008"
annotation=""/>
</atomTypes>
<parameters>
</parameters>
</forcefield>
</ffml>

> <Initial Potential Energy>
437.46899

> <Initial RMS Gradient>
97.90281

> <Minimization Criteria>
CONJUG> Minimization exiting with gradient tolerance ( 0.0100000) satisfied.

> <CHARMm Energy>
38.60552

> <Potential Energy>
38.60552

> <RMS Gradient>
0.00917

> <Bond Energy>
6.33261

> <Angle Energy>
10.72233

> <STRBend>
1.48839

> <Dihedral Energy>
16.44177

> <OOPLane>
0.14403

> <Van der Waals Energy>
64.81865

> <Electrostatic Energy>
-61.34226

> <Hydrogen Bond Energy>
0

> <Solvation Free Energy>
0

> <HasGasteigerCharges>
true

> <REMARK99>
REMARK  99  MacroMolecule created from Mol2 file
REMARK  99  CHEMBL2331779
REMARK  99  PROTEIN
REMARK  99  GASTEIGER
REMARK  99
REMARK  99

$$$$
CHEMBL3398455
  SciTegic05292516403D

 68 71  0  0  0  0            999 V2000
    8.3921   -1.9506    0.2565 C   0  0
    9.7685   -2.1714    0.2616 C   0  0
    1.1681   -0.0994   -0.1597 C   0  0
    1.5837    1.2407   -0.1655 C   0  0
    7.5376   -2.9329    0.7671 C   0  0
   -0.1852   -0.4254   -0.0366 C   0  0
    3.0040    1.5534   -0.2985 C   0  0
    5.1226    1.5796   -0.5166 C   0  0
    8.0580   -4.1299    1.2943 C   0  0
   10.3000   -3.3332    0.8094 C   0  0
    6.6467   -0.3813   -0.1487 C   0  0
    9.4493   -4.3001    1.3363 C   0  0
    6.4985    1.0468   -0.6703 C   0  0
    7.1293   -5.1930    1.8405 C   0  0
    4.0346    0.7370   -0.4213 N   0  0
   -0.7427    1.9191    0.0798 C   0  0
    0.6103    2.2464   -0.0443 C   0  0
    5.3596    4.2077   -0.5038 C   0  0
    4.6992    2.8906   -0.4538 C   0  0
    8.0205   -0.7470   -0.2773 O   0  0
   -1.1392    0.5840    0.0832 C   0  0
    3.3429    2.8821   -0.3051 O   0  0
    7.4427   -6.6286    1.3785 C   0  0
    7.1879   -6.8494   -0.1367 C   0  0  2  0  0  0
    5.7298   -7.2834   -0.3546 C   0  0
    5.7746   -8.7296   -0.1920 N   0  0
    7.1313   -9.2388   -0.2529 C   0  0
    7.9419   -8.0570   -0.7566 C   0  0  2  0  0  0
    4.6532   -9.4928    0.0157 C   0  0
    3.5261   -9.0170    0.0738 O   0  0
    4.9556  -10.8150    0.1475 O   0  0
    9.4226   -8.1068   -0.4717 C   0  0
   10.0866   -7.1202   -0.1878 O   0  0
   10.0006   -9.3174   -0.6368 O   0  0
    3.8238  -11.6625    0.3740 C   0  0
    4.3180  -13.0913    0.4878 C   0  0
   10.4322   -1.4242   -0.1581 H   0  0
    1.9034   -0.8973   -0.2531 H   0  0
    6.4612   -2.7930    0.7577 H   0  0
   -0.4972   -1.4662   -0.0342 H   0  0
   11.3756   -3.4836    0.8224 H   0  0
    6.0250   -1.0632   -0.7420 H   0  0
    6.3405   -0.4215    0.9045 H   0  0
    9.8916   -5.1977    1.7611 H   0  0
    6.7867    1.0798   -1.7284 H   0  0
    7.2109    1.6962   -0.1458 H   0  0
    7.1892   -5.1517    2.9356 H   0  0
    6.0912   -4.9547    1.5788 H   0  0
   -1.4841    2.7078    0.1741 H   0  0
    0.8989    3.2958   -0.0441 H   0  0
    4.6768    4.9772   -0.8768 H   0  0
    6.2305    4.1804   -1.1658 H   0  0
    5.6958    4.5015    0.4950 H   0  0
   -2.1892    0.3224    0.1804 H   0  0
    8.4688   -6.8834    1.6530 H   0  0
    6.8149   -7.3112    1.9666 H   0  0
    7.4145   -5.9372   -0.6987 H   0  0
    5.0105   -6.8301    0.3339 H   0  0
    5.4063   -7.0799   -1.3818 H   0  0
    7.4295   -9.5660    0.7496 H   0  0
    7.1796  -10.1002   -0.9269 H   0  0
    7.8419   -7.9949   -1.8499 H   0  0
    9.4433  -10.0472   -0.9660 H   0  0
    3.3230  -11.3685    1.3030 H   0  0
    3.1247  -11.5783   -0.4655 H   0  0
    3.4861  -13.7786    0.6648 H   0  0
    5.0368  -13.1868    1.3084 H   0  0
    4.8379  -13.3936   -0.4274 H   0  0
  1  5  2  0
  2  1  1  0
  2 37  1  0
  3  6  1  0
  3 38  1  0
  4  3  2  0
  5  9  1  0
  5 39  1  0
  6 21  2  0
  6 40  1  0
  7  4  1  0
  7 15  2  0
  8 13  1  0
  8 19  2  0
  9 12  2  0
 10  2  2  0
 10 41  1  0
 11 20  1  0
 11 42  1  0
 11 43  1  0
 12 10  1  0
 12 44  1  0
 13 11  1  0
 13 45  1  0
 13 46  1  0
 14  9  1  0
 14 23  1  0
 14 47  1  0
 14 48  1  0
 15  8  1  0
 16 17  2  0
 16 49  1  0
 17  4  1  0
 17 50  1  0
 18 51  1  0
 18 52  1  0
 18 53  1  0
 19 18  1  0
 19 22  1  0
 20  1  1  0
 21 16  1  0
 21 54  1  0
 22  7  1  0
 23 55  1  0
 23 56  1  0
 24 23  1  0
 24 25  1  0
 24 57  1  0
 25 26  1  0
 25 58  1  0
 25 59  1  0
 26 27  1  0
 26 29  1  0
 27 28  1  0
 27 60  1  0
 27 61  1  0
 28 24  1  0
 28 32  1  0
 28 62  1  0
 29 30  2  0
 29 31  1  0
 31 35  1  0
 32 33  2  0
 32 34  1  0
 34 63  1  0
 35 36  1  0
 35 64  1  0
 35 65  1  0
 36 66  1  0
 36 67  1  0
 36 68  1  0
M  END
> <Name>
CHEMBL3398455

> <Clean Energy>
54.805599

> <chembl_id>
CHEMBL3398455

> <chembl_pref_name>
None

> <efficacy>
0.26

> <Forcefield>
MMFF

> <ForcefieldBase>
MMFF

> <ForcefieldFFML>
<?xml version="1.0" encoding="UTF-8"?>
<!DOCTYPE ffml SYSTEM "Ffml.dtd">
<ffml version="1.0">
<forcefield name="MMFF" derivedFrom="MMFF" base="MMFF">
<atomTypes>
<atomType
name="C100"
element="C"
mass="12.011"
annotation=""/>
<atomType
name="N101"
element="N"
mass="14.007"
annotation=""/>
<atomType
name="O102"
element="O"
mass="16"
annotation=""/>
<atomType
name="H103"
element="H"
mass="1.008"
annotation=""/>
</atomTypes>
<parameters>
</parameters>
</forcefield>
</ffml>

> <Initial Potential Energy>
71.15095

> <Initial RMS Gradient>
24.98129

> <Minimization Criteria>
STEEPD> Minimization exiting with gradient tolerance ( 3.0000000) satisfied.

> <CHARMm Energy>
-10.73722

> <Potential Energy>
-10.73722

> <RMS Gradient>
0.05454

> <Bond Energy>
5.78383

> <Angle Energy>
21.62453

> <STRBend>
-0.1834

> <Dihedral Energy>
-5.80884

> <OOPLane>
0.13371

> <Van der Waals Energy>
56.60365

> <Electrostatic Energy>
-88.89072

> <Hydrogen Bond Energy>
0

> <Solvation Free Energy>
0

> <HasGasteigerCharges>
true

> <REMARK99>
REMARK  99  MacroMolecule created from Mol2 file
REMARK  99  CHEMBL3398455
REMARK  99  PROTEIN
REMARK  99  GASTEIGER
REMARK  99
REMARK  99

$$$$
CHEMBL3398427
  SciTegic05292516403D

 66 70  0  0  0  0            999 V2000
    1.1538   -1.4629    0.2538 C   0  0
    1.3749   -0.1544    0.6648 C   0  0
   -2.9405   -3.2875    0.4801 C   0  0
   -0.1516   -2.0040    0.2612 C   0  0
   -4.9763   -2.0552    0.1483 C   0  0
   -3.7873   -1.1108   -0.0679 C   0  0  2  0  0  0
   -3.4971   -1.0137   -1.5548 C   0  0
   -4.4784   -5.6452    0.4287 O   0  0
   -4.3870   -3.3666    0.3315 N   0  0
   -1.2632   -1.2479    0.6700 C   0  0
    0.2757    0.6112    1.0632 C   0  0
   -2.4836   -1.4184   -2.1033 O   0  0
   -4.4928   -0.4042   -2.2536 O   0  0
   -1.0220    0.0771    1.0662 C   0  0
   -7.1711   -5.5566   -0.0924 C   0  0
   -6.4165   -4.3937    0.1071 O   0  0
   -2.6748   -1.7998    0.7656 C   0  0  2  0  0  0
   -5.0523   -4.5699    0.3004 C   0  0
    8.8082   -3.1007    0.4094 C   0  0
    9.0834   -1.8244   -0.1043 C   0  0
    9.7682   -4.1143    0.3684 C   0  0
    8.0533   -0.7904   -0.0552 C   0  0
    6.2919    0.3951    0.2052 C   0  0
    3.7867   -0.1797    0.3596 C   0  0
    4.9369    0.7846    0.6878 C   0  0
    6.8290   -0.8519    0.4417 N   0  0
   11.3137   -2.6004   -0.6968 C   0  0
   10.3515   -1.5873   -0.6567 C   0  0
    7.2933    2.5715   -0.9043 C   0  0
    7.2395    1.1770   -0.4286 C   0  0
    2.5750    0.4924    0.7413 O   0  0
   11.0202   -3.8629   -0.1857 C   0  0
    8.3694    0.4266   -0.5978 O   0  0
   -8.2564   -5.7753    0.7541 C   0  0
   -9.0697   -6.8893    0.5477 C   0  0
   -8.8017   -7.7637   -0.5079 C   0  0
   -7.7235   -7.5248   -1.3624 C   0  0
   -6.9075   -6.4121   -1.1620 C   0  0
    1.9700   -2.0975   -0.0756 H   0  0
   -2.6005   -3.9426    1.2890 H   0  0
   -2.4913   -3.6325   -0.4576 H   0  0
   -0.2611   -3.0356   -0.0649 H   0  0
   -5.5094   -1.8065    1.0732 H   0  0
   -5.7001   -2.0779   -0.6718 H   0  0
   -3.9917   -0.0984    0.2977 H   0  0
    0.4325    1.6378    1.3867 H   0  0
   -5.2528   -0.0778   -1.7360 H   0  0
   -1.8382    0.7099    1.4061 H   0  0
   -2.9509   -1.6566    1.8240 H   0  0
    7.8329   -3.3121    0.8431 H   0  0
    9.5300   -5.0968    0.7672 H   0  0
    3.9050   -1.1105    0.9264 H   0  0
    3.7618   -0.3984   -0.7140 H   0  0
    4.9800    0.9228    1.7765 H   0  0
    4.6822    1.7745    0.2863 H   0  0
   12.2899   -2.4010   -1.1296 H   0  0
   10.6002   -0.6090   -1.0633 H   0  0
    8.3267    2.9026   -1.0463 H   0  0
    6.8209    3.2454   -0.1833 H   0  0
    6.7690    2.6664   -1.8597 H   0  0
   11.7652   -4.6517   -0.2199 H   0  0
   -8.4698   -5.0908    1.5688 H   0  0
   -9.9113   -7.0771    1.2088 H   0  0
   -9.4333   -8.6332   -0.6661 H   0  0
   -7.5171   -8.2065   -2.1832 H   0  0
   -6.0713   -6.2247   -1.8293 H   0  0
  1  4  2  0
  1 39  1  0
  2  1  1  0
  3  9  1  0
  3 40  1  0
  3 41  1  0
  4 10  1  0
  4 42  1  0
  5  6  1  0
  5 43  1  0
  5 44  1  0
  6  7  1  0
  6 17  1  0
  6 45  1  0
  7 12  2  0
  7 13  1  0
  9  5  1  0
  9 18  1  0
 10 14  2  0
 11  2  2  0
 11 46  1  0
 13 47  1  0
 14 11  1  0
 14 48  1  0
 15 34  2  0
 16 15  1  0
 17  3  1  0
 17 10  1  0
 17 49  1  0
 18  8  2  0
 18 16  1  0
 19 21  1  0
 19 50  1  0
 20 19  2  0
 21 32  2  0
 21 51  1  0
 22 20  1  0
 22 26  2  0
 23 25  1  0
 23 30  2  0
 24 31  1  0
 24 52  1  0
 24 53  1  0
 25 24  1  0
 25 54  1  0
 25 55  1  0
 26 23  1  0
 27 28  2  0
 27 56  1  0
 28 20  1  0
 28 57  1  0
 29 58  1  0
 29 59  1  0
 29 60  1  0
 30 29  1  0
 30 33  1  0
 31  2  1  0
 32 27  1  0
 32 61  1  0
 33 22  1  0
 34 35  1  0
 34 62  1  0
 35 36  2  0
 35 63  1  0
 36 37  1  0
 36 64  1  0
 37 38  2  0
 37 65  1  0
 38 15  1  0
 38 66  1  0
M  END
> <Name>
CHEMBL3398427

> <Clean Energy>
69.129097

> <chembl_id>
CHEMBL3398427

> <chembl_pref_name>
None

> <efficacy>
0.33

> <Forcefield>
MMFF

> <ForcefieldBase>
MMFF

> <ForcefieldFFML>
<?xml version="1.0" encoding="UTF-8"?>
<!DOCTYPE ffml SYSTEM "Ffml.dtd">
<ffml version="1.0">
<forcefield name="MMFF" derivedFrom="MMFF" base="MMFF">
<atomTypes>
<atomType
name="C100"
element="C"
mass="12.011"
annotation=""/>
<atomType
name="O101"
element="O"
mass="16"
annotation=""/>
<atomType
name="N102"
element="N"
mass="14.007"
annotation=""/>
<atomType
name="H103"
element="H"
mass="1.008"
annotation=""/>
</atomTypes>
<parameters>
</parameters>
</forcefield>
</ffml>

> <Initial Potential Energy>
126.63466

> <Initial RMS Gradient>
28.99336

> <Minimization Criteria>
STEEPD> Minimization exiting with gradient tolerance ( 3.0000000) satisfied.

> <CHARMm Energy>
43.86847

> <Potential Energy>
43.86847

> <RMS Gradient>
0.10134

> <Bond Energy>
7.74822

> <Angle Energy>
30.4223

> <STRBend>
-0.61087

> <Dihedral Energy>
1.25383

> <OOPLane>
0.13544

> <Van der Waals Energy>
62.21583

> <Electrostatic Energy>
-57.29629

> <Hydrogen Bond Energy>
0

> <Solvation Free Energy>
0

> <HasGasteigerCharges>
true

> <REMARK99>
REMARK  99  MacroMolecule created from Mol2 file
REMARK  99  CHEMBL3398427
REMARK  99  PROTEIN
REMARK  99  GASTEIGER
REMARK  99
REMARK  99

$$$$
CHEMBL4075210
  SciTegic05292516403D

 45 47  0  0  0  0            999 V2000
   34.6960    1.1884   -0.2480 N   0  0
   35.6193    0.2100   -0.4390 C   0  0
   33.4294    0.8036    0.0907 C   0  0
   34.9056   -1.3579   -0.1705 S   0  0
   33.3586   -0.6827    0.1928 C   0  0
   30.1678  -10.6803   -0.3005 C   0  0
   29.0090  -11.3331   -0.5601 N   0  0
   36.7860    0.3908   -0.7445 O   0  0
   30.4606   -9.5423   -1.0423 N   0  0
   32.5099    1.5827    0.2887 O   0  0
   32.2400   -1.3452    0.5187 C   0  0
   32.1277   -2.8024    0.6727 C   0  0
   31.8742   -5.5917    0.9720 C   0  0
   32.7693   -3.4622    1.7247 C   0  0
   31.3554   -3.5484   -0.2247 C   0  0
   31.2334   -4.9390   -0.0798 C   0  0
   32.6489   -4.8466    1.8642 C   0  0
   31.8577   -6.9320    1.2270 O   0  0
   30.8291   -7.7369    0.6420 C   0  0
   31.3744   -8.4953   -0.5763 C   0  0
   31.0212  -11.1732    0.6878 C   0  0
   28.6891  -12.4321    0.1598 C   0  0
   29.6613   -9.3222   -2.2519 C   0  0
   30.6773  -12.3096    1.4242 C   0  0
   29.4819  -12.9523    1.1602 C   0  0
   28.4121   -8.5022   -1.9647 C   0  0
   34.9437    2.1633   -0.3524 H   0  0
   31.3109   -0.8085    0.6962 H   0  0
   33.3703   -2.9092    2.4434 H   0  0
   30.8493   -3.0542   -1.0519 H   0  0
   30.6424   -5.4788   -0.8119 H   0  0
   33.1594   -5.3488    2.6827 H   0  0
   30.5332   -8.4460    1.4227 H   0  0
   29.9209   -7.1697    0.4106 H   0  0
   32.3616   -8.9174   -0.3523 H   0  0
   31.5660   -7.7758   -1.3820 H   0  0
   31.9763  -10.7109    0.8970 H   0  0
   27.7424  -12.8945   -0.1031 H   0  0
   30.2698   -8.7806   -2.9871 H   0  0
   29.3958  -10.2659   -2.7449 H   0  0
   31.3480  -12.6830    2.1921 H   0  0
   29.1811  -13.8356    1.7101 H   0  0
   27.8238   -8.3804   -2.8797 H   0  0
   28.6714   -7.5035   -1.6004 H   0  0
   27.7757   -8.9785   -1.2128 H   0  0
  1 27  1  0
  2  1  1  0
  3  1  1  0
  4  2  1  0
  4  5  1  0
  5  3  1  0
  6  9  1  0
  7  6  2  0
  8  2  2  0
  9 20  1  0
 10  3  2  0
 11  5  2  0
 11 28  1  0
 12 11  1  0
 13 16  2  0
 13 17  1  0
 14 12  1  0
 14 29  1  0
 15 12  2  0
 15 30  1  0
 16 15  1  0
 16 31  1  0
 17 14  2  0
 17 32  1  0
 18 13  1  0
 19 18  1  0
 19 33  1  0
 19 34  1  0
 20 19  1  0
 20 35  1  0
 20 36  1  0
 21  6  1  0
 21 37  1  0
 22  7  1  0
 22 38  1  0
 23  9  1  0
 23 26  1  0
 23 39  1  0
 23 40  1  0
 24 21  2  0
 24 41  1  0
 25 22  2  0
 25 24  1  0
 25 42  1  0
 26 43  1  0
 26 44  1  0
 26 45  1  0
M  END
> <Name>
CHEMBL4075210

> <Clean Energy>
28.369101

> <chembl_id>
CHEMBL4075210

> <chembl_pref_name>
None

> <efficacy>
0.360873694

> <Forcefield>
MMFF

> <ForcefieldBase>
MMFF

> <ForcefieldFFML>
<?xml version="1.0" encoding="UTF-8"?>
<!DOCTYPE ffml SYSTEM "Ffml.dtd">
<ffml version="1.0">
<forcefield name="MMFF" derivedFrom="MMFF" base="MMFF">
<atomTypes>
<atomType
name="N100"
element="N"
mass="14.007"
annotation=""/>
<atomType
name="C101"
element="C"
mass="12.011"
annotation=""/>
<atomType
name="S102"
element="S"
mass="32.066"
annotation=""/>
<atomType
name="O103"
element="O"
mass="16"
annotation=""/>
<atomType
name="H104"
element="H"
mass="1.008"
annotation=""/>
</atomTypes>
<parameters>
</parameters>
</forcefield>
</ffml>

> <Initial Potential Energy>
42.18312

> <Initial RMS Gradient>
29.37354

> <Minimization Criteria>
CONJUG> Minimization exiting with gradient tolerance ( 0.0100000) satisfied.

> <CHARMm Energy>
-39.84676

> <Potential Energy>
-39.84676

> <RMS Gradient>
0.00973

> <Bond Energy>
3.28664

> <Angle Energy>
24.05637

> <STRBend>
0.42173

> <Dihedral Energy>
7.27704

> <OOPLane>
0.1253

> <Van der Waals Energy>
44.62795

> <Electrostatic Energy>
-119.6418

> <Hydrogen Bond Energy>
0

> <Solvation Free Energy>
0

> <HasGasteigerCharges>
true

> <REMARK99>
REMARK  99  MacroMolecule created from Mol2 file
REMARK  99  CHEMBL4075210
REMARK  99  PROTEIN
REMARK  99  GASTEIGER
REMARK  99
REMARK  99

$$$$
CHEMBL4466552
  SciTegic05292516403D

 74 75  0  0  0  0            999 V2000
    4.8545  -16.8648    1.1589 C   0  0
    6.0330  -17.0274    2.1263 C   0  0
    3.4507  -16.8149    1.8334 C   0  0  2  0  0  0
    0.9839  -18.4013   -1.9754 C   0  0
    1.2932  -19.7210   -1.6449 C   0  0
    1.9459  -19.9890   -0.4419 C   0  0
    1.3563  -17.3458   -1.1245 C   0  0
    2.0476  -17.6304    0.0639 C   0  0
    2.3016  -18.9546    0.4324 C   0  0
    3.0131  -19.2886    1.7108 C   0  0
    3.0688  -18.0757    2.6250 C   0  0
    2.4493  -16.5574    0.8183 O   0  0
    1.0587  -15.9251   -1.5149 C   0  0
    1.0358  -20.8257   -2.4071 O   0  0
    3.3657  -15.6033    2.7776 C   0  0
    7.3388  -17.2819    1.4140 C   0  0
    8.3858  -16.4420    1.2736 C   0  0
    9.6778  -16.9121    0.6193 C   0  0
    8.3815  -15.0049    1.7230 C   0  0
   10.8610  -16.9292    1.6020 C   0  0
   12.0466  -17.6880    1.0600 C   0  0
   13.3019  -17.2418    0.8283 C   0  0
   14.3777  -18.1743    0.3447 C   0  0
   13.7773  -15.8309    1.0167 C   0  0
   13.8747  -19.4108    0.1266 O   0  0
   15.5447  -17.8529    0.1843 O   0  0
    0.2666  -20.6271   -3.5874 C   0  0
   14.8236  -20.3684   -0.3622 C   0  0
   14.1586  -21.7294   -0.2807 C   0  0
   15.2294  -20.0541   -1.7918 C   0  0
   16.5003  -20.4835   -2.0397 O   0  0
   14.5125  -19.4926   -2.6129 O   0  0
   16.9612  -20.1831   -3.3565 C   0  0
   13.0419  -21.9455    0.1804 O   0  0
   14.9927  -22.7025   -0.7476 O   0  0
   14.4623  -24.0291   -0.6841 C   0  0
    4.9950  -15.9448    0.5736 H   0  0
    4.8827  -17.6665    0.4105 H   0  0
    6.1088  -16.1560    2.7828 H   0  0
    5.8631  -17.8858    2.7855 H   0  0
    0.4704  -18.1632   -2.9016 H   0  0
    2.2178  -21.0145   -0.1964 H   0  0
    2.4965  -20.1062    2.2276 H   0  0
    4.0274  -19.6327    1.4768 H   0  0
    2.0699  -17.9342    3.0619 H   0  0
    3.7515  -18.2631    3.4605 H   0  0
    1.9883  -15.3956   -1.7470 H   0  0
    0.5382  -15.4067   -0.7028 H   0  0
    0.4126  -15.8782   -2.3978 H   0  0
    2.3380  -15.4579    3.1316 H   0  0
    3.6418  -14.6807    2.2538 H   0  0
    4.0123  -15.7144    3.6533 H   0  0
    7.4316  -18.2972    1.0270 H   0  0
    9.5372  -17.9167    0.1990 H   0  0
    9.9099  -16.2596   -0.2324 H   0  0
    8.8024  -14.3636    0.9410 H   0  0
    8.9819  -14.8854    2.6299 H   0  0
    7.3765  -14.6260    1.9271 H   0  0
   11.1259  -15.9054    1.8805 H   0  0
   10.5550  -17.4273    2.5316 H   0  0
   11.8092  -18.7387    0.8800 H   0  0
   14.2552  -15.4641    0.1016 H   0  0
   14.5075  -15.7815    1.8313 H   0  0
   12.9717  -15.1317    1.2501 H   0  0
    0.1018  -21.6062   -4.0477 H   0  0
    0.8077  -20.0065   -4.3092 H   0  0
   -0.7141  -20.1991   -3.3543 H   0  0
   15.6953  -20.3771    0.3038 H   0  0
   17.9876  -20.5490   -3.4475 H   0  0
   16.9641  -19.1017   -3.5261 H   0  0
   16.3454  -20.6933   -4.1037 H   0  0
   15.2136  -24.7136   -1.0874 H   0  0
   13.5570  -24.1072   -1.2941 H   0  0
   14.2579  -24.3087    0.3539 H   0  0
  1  2  1  0
  1  3  1  0
  1 37  1  0
  1 38  1  0
  2 16  1  0
  2 39  1  0
  2 40  1  0
  3 12  1  0
  3 15  1  0
  4  5  2  0
  4 41  1  0
  5  6  1  0
  5 14  1  0
  6  9  2  0
  6 42  1  0
  7  4  1  0
  7 13  1  0
  8  7  2  0
  8  9  1  0
  8 12  1  0
  9 10  1  0
 10 11  1  0
 10 43  1  0
 10 44  1  0
 11  3  1  0
 11 45  1  0
 11 46  1  0
 13 47  1  0
 13 48  1  0
 13 49  1  0
 14 27  1  0
 15 50  1  0
 15 51  1  0
 15 52  1  0
 16 17  2  0
 16 53  1  0
 17 18  1  0
 17 19  1  0
 18 20  1  0
 18 54  1  0
 18 55  1  0
 19 56  1  0
 19 57  1  0
 19 58  1  0
 20 21  1  0
 20 59  1  0
 20 60  1  0
 21 22  2  0
 21 61  1  0
 22 23  1  0
 22 24  1  0
 23 25  1  0
 23 26  2  0
 24 62  1  0
 24 63  1  0
 24 64  1  0
 25 28  1  0
 27 65  1  0
 27 66  1  0
 27 67  1  0
 28 29  1  0
 28 30  1  0
 28 68  1  0
 29 34  2  0
 29 35  1  0
 30 31  1  0
 30 32  2  0
 31 33  1  0
 33 69  1  0
 33 70  1  0
 33 71  1  0
 35 36  1  0
 36 72  1  0
 36 73  1  0
 36 74  1  0
M  END
> <Name>
CHEMBL4466552

> <Clean Energy>
29.3435

> <chembl_id>
CHEMBL4466552

> <chembl_pref_name>
None

> <efficacy>
0.37

> <Forcefield>
MMFF

> <ForcefieldBase>
MMFF

> <ForcefieldFFML>
<?xml version="1.0" encoding="UTF-8"?>
<!DOCTYPE ffml SYSTEM "Ffml.dtd">
<ffml version="1.0">
<forcefield name="MMFF" derivedFrom="MMFF" base="MMFF">
<atomTypes>
<atomType
name="C100"
element="C"
mass="12.011"
annotation=""/>
<atomType
name="O101"
element="O"
mass="16"
annotation=""/>
<atomType
name="H102"
element="H"
mass="1.008"
annotation=""/>
</atomTypes>
<parameters>
</parameters>
</forcefield>
</ffml>

> <Initial Potential Energy>
167.09809

> <Initial RMS Gradient>
17.80895

> <Minimization Criteria>
STEEPD> Minimization exiting with gradient tolerance ( 3.0000000) satisfied.

> <CHARMm Energy>
51.40041

> <Potential Energy>
51.40041

> <RMS Gradient>
0.05142

> <Bond Energy>
6.6708

> <Angle Energy>
23.27542

> <STRBend>
0.87432

> <Dihedral Energy>
-7.54041

> <OOPLane>
0.09038

> <Van der Waals Energy>
66.57028

> <Electrostatic Energy>
-38.54038

> <Hydrogen Bond Energy>
0

> <Solvation Free Energy>
0

> <HasGasteigerCharges>
true

> <REMARK99>
REMARK  99  MacroMolecule created from Mol2 file
REMARK  99  CHEMBL4466552
REMARK  99  PROTEIN
REMARK  99  GASTEIGER
REMARK  99
REMARK  99

$$$$
CHEMBL370152
  SciTegic05292516403D

 43 46  0  0  0  0            999 V2000
   -0.3246   -4.3770   -1.1014 C   0  0
    0.4016   -5.4686   -0.6195 C   0  0
    0.7484   -5.5282    0.7281 C   0  0
    1.6537   -6.8662    1.3182 Cl  0  0
    0.3633   -4.5160    1.6021 C   0  0
   -0.3669   -3.4274    1.1224 C   0  0
   -0.7007   -3.3345   -0.2399 C   0  0
   -1.4758   -2.1499   -0.7794 C   0  0
   -0.8933   -0.8743   -0.3543 N   0  0
   -1.4542    0.0130    0.5523 C   0  0
   -2.7908   -0.0366    1.0797 C   0  0
   -3.6897   -0.3291    0.1159 O   0  0
   -3.1710    0.1800    2.2183 O   0  0
    0.3753   -0.4516   -0.7285 C   0  0
    1.2806   -0.9775   -1.6678 C   0  0
    2.5371   -0.3783   -1.7854 C   0  0
    2.8795    0.7045   -0.9862 C   0  0
    4.4390    1.4179   -1.1446 Cl  0  0
    1.9777    1.2251   -0.0561 C   0  0
    0.6942    0.6466    0.0717 C   0  0
   -0.4564    0.9232    0.8654 C   0  0
   -0.5976    2.2389    2.0242 S   0  0
   -0.1930    3.6713    1.0424 C   0  0
   -0.7844    3.9010   -0.2055 C   0  0
   -0.4257    5.0192   -0.9594 C   0  0
    0.5178    5.9179   -0.4655 C   0  0
    1.0989    5.7050    0.7829 C   0  0
    0.7404    4.5880    1.5378 C   0  0
   -0.5846   -4.3448   -2.1574 H   0  0
    0.6975   -6.2626   -1.2991 H   0  0
    0.6293   -4.5642    2.6549 H   0  0
   -0.6560   -2.6462    1.8236 H   0  0
   -1.4892   -2.1338   -1.8757 H   0  0
   -2.5066   -2.2361   -0.4327 H   0  0
   -4.5415   -0.2653    0.5978 H   0  0
    1.0302   -1.8340   -2.2855 H   0  0
    3.2506   -0.7741   -2.5038 H   0  0
    2.2624    2.0719    0.5606 H   0  0
   -1.5192    3.2065   -0.6055 H   0  0
   -0.8813    5.1914   -1.9315 H   0  0
    0.8006    6.7850   -1.0554 H   0  0
    1.8324    6.4073    1.1693 H   0  0
    1.2040    4.4317    2.5095 H   0  0
  1  7  2  0
  1 29  1  0
  2  1  1  0
  2  3  2  0
  2 30  1  0
  3  4  1  0
  5  3  1  0
  5  6  2  0
  5 31  1  0
  6  7  1  0
  6 32  1  0
  8  7  1  0
  8  9  1  0
  8 33  1  0
  8 34  1  0
 10  9  1  0
 11 10  1  0
 11 12  1  0
 11 13  2  0
 12 35  1  0
 14  9  1  0
 15 14  1  0
 15 36  1  0
 16 15  2  0
 16 17  1  0
 16 37  1  0
 17 18  1  0
 19 17  2  0
 19 20  1  0
 19 38  1  0
 20 14  2  0
 21 10  2  0
 21 20  1  0
 21 22  1  0
 23 22  1  0
 24 23  1  0
 24 39  1  0
 25 24  2  0
 25 40  1  0
 26 25  1  0
 26 27  2  0
 26 41  1  0
 27 28  1  0
 27 42  1  0
 28 23  2  0
 28 43  1  0
M  END
> <Name>
CHEMBL370152

> <Clean Energy>
46.952

> <chembl_id>
CHEMBL370152

> <chembl_pref_name>
None

> <efficacy>
0.25

> <Forcefield>
MMFF

> <ForcefieldBase>
MMFF

> <ForcefieldFFML>
<?xml version="1.0" encoding="UTF-8"?>
<!DOCTYPE ffml SYSTEM "Ffml.dtd">
<ffml version="1.0">
<forcefield name="MMFF" derivedFrom="MMFF" base="MMFF">
<atomTypes>
<atomType
name="C100"
element="C"
mass="12.011"
annotation=""/>
<atomType
name="Cl101"
element="Cl"
mass="35.453"
annotation=""/>
<atomType
name="N102"
element="N"
mass="14.007"
annotation=""/>
<atomType
name="O103"
element="O"
mass="16"
annotation=""/>
<atomType
name="S104"
element="S"
mass="32.066"
annotation=""/>
<atomType
name="H105"
element="H"
mass="1.008"
annotation=""/>
</atomTypes>
<parameters>
</parameters>
</forcefield>
</ffml>

> <Initial Potential Energy>
1073.09282

> <Initial RMS Gradient>
538.89855

> <Minimization Criteria>
STEEPD> Minimization exiting with gradient tolerance ( 3.0000000) satisfied.

> <CHARMm Energy>
28.66345

> <Potential Energy>
28.66345

> <RMS Gradient>
0.12164

> <Bond Energy>
5.38633

> <Angle Energy>
5.19997

> <STRBend>
-0.17657

> <Dihedral Energy>
10.2368

> <OOPLane>
0.06689

> <Van der Waals Energy>
49.28356

> <Electrostatic Energy>
-41.33352

> <Hydrogen Bond Energy>
0

> <Solvation Free Energy>
0

> <HasGasteigerCharges>
true

> <REMARK99>
REMARK  99  MacroMolecule created from Mol2 file
REMARK  99  CHEMBL370152
REMARK  99  PROTEIN
REMARK  99  GASTEIGER
REMARK  99
REMARK  99

$$$$
CHEMBL5078732
  SciTegic05292516403D

 48 51  0  0  0  0            999 V2000
   -0.0856    0.6492   -0.9913 F   0  0
   -0.7584   -0.4906   -1.3090 C   0  0
   -0.2372   -0.9131   -2.4944 F   0  0
   -1.8025   -2.2135    0.2083 C   0  0
   -1.7434   -3.1790    1.2119 C   0  0
   -0.5203   -3.4919    1.7950 C   0  0
    0.6451   -2.8529    1.3679 C   0  0
    0.6158   -1.9008    0.3311 C   0  0
   -0.6371   -1.5529   -0.2332 C   0  0
   -2.0420   -0.1114   -1.5714 F   0  0
    1.8957   -1.2045   -0.0951 C   0  0
    3.0561   -2.0715   -0.0414 N   0  0
    4.3259   -1.5406    0.0466 C   0  0
    5.4592   -2.4984    0.1552 C   0  0
    4.5468   -0.3356    0.0300 O   0  0
    5.3021   -3.7628    0.7406 C   0  0
    6.3896   -4.6337    0.8914 C   0  0
    6.7210   -2.0698   -0.2898 C   0  0
    7.8181   -2.9289   -0.1436 C   0  0
    7.6363   -4.1798    0.4445 C   0  0
    8.8970   -4.7305    0.4434 N   0  0
    9.7520   -3.8304   -0.1304 C   0  0
    9.1309   -2.7348   -0.4985 N   0  0
    9.2920   -6.0113    1.0059 C   0  0
    9.2110   -7.1812    0.0493 C   0  0
    8.7516   -7.0782   -1.2746 C   0  0
    8.6516   -8.2063   -2.0945 C   0  0
    9.0232   -9.4549   -1.6085 C   0  0
    9.5004   -9.5651   -0.3100 C   0  0
    9.5952   -8.4493    0.5180 C   0  0
    9.8651  -10.7652    0.1610 F   0  0
   -2.7703   -1.9664   -0.2274 H   0  0
   -2.6529   -3.6735    1.5473 H   0  0
   -0.4689   -4.2306    2.5913 H   0  0
    1.5818   -3.0966    1.8663 H   0  0
    1.8366   -0.8669   -1.1338 H   0  0
    2.0577   -0.3296    0.5448 H   0  0
    2.9323   -3.0586   -0.2173 H   0  0
    4.3363   -4.0803    1.1249 H   0  0
    6.2605   -5.6087    1.3491 H   0  0
    6.8623   -1.0879   -0.7302 H   0  0
   10.8078   -4.0220   -0.2577 H   0  0
   10.3236   -5.8998    1.3621 H   0  0
    8.6532   -6.1971    1.8770 H   0  0
    8.4540   -6.1213   -1.6986 H   0  0
    8.2658   -8.0999   -3.1064 H   0  0
    8.9400  -10.3365   -2.2330 H   0  0
    9.9675   -8.5893    1.5301 H   0  0
  2  1  1  0
  2 10  1  0
  3  2  1  0
  4  5  2  0
  4 32  1  0
  5  6  1  0
  5 33  1  0
  6  7  2  0
  6 34  1  0
  7  8  1  0
  7 35  1  0
  8  9  2  0
  8 11  1  0
  9  2  1  0
  9  4  1  0
 11 12  1  0
 11 36  1  0
 11 37  1  0
 12 13  1  0
 12 38  1  0
 13 14  1  0
 13 15  2  0
 14 16  2  0
 16 17  1  0
 16 39  1  0
 17 20  2  0
 17 40  1  0
 18 14  1  0
 18 41  1  0
 19 18  2  0
 19 20  1  0
 20 21  1  0
 21 22  1  0
 21 24  1  0
 22 23  2  0
 22 42  1  0
 23 19  1  0
 24 25  1  0
 24 43  1  0
 24 44  1  0
 25 26  2  0
 26 27  1  0
 26 45  1  0
 27 28  2  0
 27 46  1  0
 28 29  1  0
 28 47  1  0
 29 30  2  0
 29 31  1  0
 30 25  1  0
 30 48  1  0
M  END
> <Name>
CHEMBL5078732

> <Clean Energy>
47.9118

> <chembl_id>
CHEMBL5078732

> <chembl_pref_name>
None

> <efficacy>
0.104463438

> <Forcefield>
MMFF

> <ForcefieldBase>
MMFF

> <ForcefieldFFML>
<?xml version="1.0" encoding="UTF-8"?>
<!DOCTYPE ffml SYSTEM "Ffml.dtd">
<ffml version="1.0">
<forcefield name="MMFF" derivedFrom="MMFF" base="MMFF">
<atomTypes>
<atomType
name="F100"
element="F"
mass="18.998"
annotation=""/>
<atomType
name="C101"
element="C"
mass="12.011"
annotation=""/>
<atomType
name="N102"
element="N"
mass="14.007"
annotation=""/>
<atomType
name="O103"
element="O"
mass="16"
annotation=""/>
<atomType
name="H104"
element="H"
mass="1.008"
annotation=""/>
</atomTypes>
<parameters>
</parameters>
</forcefield>
</ffml>

> <Initial Potential Energy>
414.68703

> <Initial RMS Gradient>
208.3575

> <Minimization Criteria>
STEEPD> Minimization exiting with gradient tolerance ( 3.0000000) satisfied.

> <CHARMm Energy>
53.10566

> <Potential Energy>
53.10566

> <RMS Gradient>
0.11378

> <Bond Energy>
6.47837

> <Angle Energy>
6.27056

> <STRBend>
0.27927

> <Dihedral Energy>
0.52951

> <OOPLane>
0.13324

> <Van der Waals Energy>
55.47748

> <Electrostatic Energy>
-16.06277

> <Hydrogen Bond Energy>
0

> <Solvation Free Energy>
0

> <HasGasteigerCharges>
true

> <REMARK99>
REMARK  99  MacroMolecule created from Mol2 file
REMARK  99  CHEMBL5078732
REMARK  99  PROTEIN
REMARK  99  GASTEIGER
REMARK  99
REMARK  99

$$$$
CHEMBL5080632
  SciTegic05292516403D

 48 51  0  0  0  0            999 V2000
   20.0107    0.9324   -0.0485 F   0  0
   19.8593   -0.0711   -0.9577 C   0  0
   20.9373    0.0016   -1.7902 F   0  0
   18.4802   -2.0954   -0.3815 C   0  0
   18.2872   -3.3371    0.2220 C   0  0
   19.3322   -3.9297    0.9205 C   0  0
   20.5635   -3.2795    1.0260 C   0  0
   20.7896   -2.0311    0.4167 C   0  0
   19.7244   -1.4291   -0.3007 C   0  0
   18.7802    0.2836   -1.7153 F   0  0
   22.1238   -1.3448    0.6493 C   0  0
   23.2760   -2.1525    0.2826 N   0  0
   24.0933   -2.7140    1.2418 C   0  0
   25.3771   -3.3272    0.7903 C   0  0
   23.8098   -2.7279    2.4355 O   0  0
   25.9185   -4.3513    1.5788 C   0  0
   27.1641   -4.9213    1.2897 C   0  0
   26.0899   -2.8431   -0.3209 C   0  0
   27.3553   -3.3994   -0.6160 C   0  0
   27.8660   -4.4172    0.1874 C   0  0
   29.1020   -4.7197   -0.3452 N   0  0
   29.4291   -3.9656   -1.4213 N   0  0
   28.3655   -3.1734   -1.5807 C   0  0
   30.0734   -5.6817    0.1676 C   0  0
   29.7202   -7.1001   -0.2080 C   0  0
   29.6921   -7.4987   -1.5558 C   0  0
   29.3549   -8.8081   -1.9062 C   0  0
   29.0307   -9.7294   -0.9129 C   0  0
   29.0596   -9.3392    0.4198 C   0  0
   29.4073   -8.0420    0.7815 C   0  0
   28.7365  -10.2203    1.3748 F   0  0
   17.6438   -1.6400   -0.9137 H   0  0
   17.3213   -3.8339    0.1541 H   0  0
   19.1976   -4.8970    1.3978 H   0  0
   21.3511   -3.7474    1.6160 H   0  0
   22.2159   -0.4282    0.0629 H   0  0
   22.1842   -1.0476    1.7028 H   0  0
   23.4759   -2.2788   -0.6993 H   0  0
   25.3692   -4.7068    2.4506 H   0  0
   27.5654   -5.7081    1.9183 H   0  0
   25.7155   -2.0185   -0.9177 H   0  0
   28.3722   -2.4538   -2.3892 H   0  0
   31.0606   -5.4208   -0.2317 H   0  0
   30.1155   -5.5471    1.2545 H   0  0
   29.9047   -6.7732   -2.3419 H   0  0
   29.3395   -9.1075   -2.9520 H   0  0
   28.7530  -10.7462   -1.1692 H   0  0
   29.4103   -7.7785    1.8351 H   0  0
  2  1  1  0
  2 10  1  0
  3  2  1  0
  4  5  2  0
  4 32  1  0
  5  6  1  0
  5 33  1  0
  6  7  2  0
  6 34  1  0
  7  8  1  0
  7 35  1  0
  8  9  2  0
  8 11  1  0
  9  2  1  0
  9  4  1  0
 11 12  1  0
 11 36  1  0
 11 37  1  0
 12 13  1  0
 12 38  1  0
 13 14  1  0
 13 15  2  0
 14 16  2  0
 16 17  1  0
 16 39  1  0
 17 20  2  0
 17 40  1  0
 18 14  1  0
 18 41  1  0
 19 18  2  0
 19 20  1  0
 20 21  1  0
 21 22  1  0
 21 24  1  0
 22 23  2  0
 23 19  1  0
 23 42  1  0
 24 25  1  0
 24 43  1  0
 24 44  1  0
 25 26  2  0
 26 27  1  0
 26 45  1  0
 27 28  2  0
 27 46  1  0
 28 29  1  0
 28 47  1  0
 29 30  2  0
 29 31  1  0
 30 25  1  0
 30 48  1  0
M  END
> <Name>
CHEMBL5080632

> <Clean Energy>
48.652199

> <chembl_id>
CHEMBL5080632

> <chembl_pref_name>
None

> <efficacy>
0.12345679

> <Forcefield>
MMFF

> <ForcefieldBase>
MMFF

> <ForcefieldFFML>
<?xml version="1.0" encoding="UTF-8"?>
<!DOCTYPE ffml SYSTEM "Ffml.dtd">
<ffml version="1.0">
<forcefield name="MMFF" derivedFrom="MMFF" base="MMFF">
<atomTypes>
<atomType
name="F100"
element="F"
mass="18.998"
annotation=""/>
<atomType
name="C101"
element="C"
mass="12.011"
annotation=""/>
<atomType
name="N102"
element="N"
mass="14.007"
annotation=""/>
<atomType
name="O103"
element="O"
mass="16"
annotation=""/>
<atomType
name="H104"
element="H"
mass="1.008"
annotation=""/>
</atomTypes>
<parameters>
</parameters>
</forcefield>
</ffml>

> <Initial Potential Energy>
456.24647

> <Initial RMS Gradient>
208.89349

> <Minimization Criteria>
CONJUG> Minimization exiting with gradient tolerance ( 0.0100000) satisfied.

> <CHARMm Energy>
83.33658

> <Potential Energy>
83.33658

> <RMS Gradient>
0.00961

> <Bond Energy>
7.05832

> <Angle Energy>
6.25819

> <STRBend>
0.46261

> <Dihedral Energy>
2.16734

> <OOPLane>
0.11388

> <Van der Waals Energy>
52.20426

> <Electrostatic Energy>
15.07199

> <Hydrogen Bond Energy>
0

> <Solvation Free Energy>
0

> <HasGasteigerCharges>
true

> <REMARK99>
REMARK  99  MacroMolecule created from Mol2 file
REMARK  99  CHEMBL5080632
REMARK  99  PROTEIN
REMARK  99  GASTEIGER
REMARK  99
REMARK  99

$$$$
CHEMBL2424946
  SciTegic05292516403D

 52 55  0  0  0  0            999 V2000
    3.5256   -6.3001   -0.4638 S   0  0
    4.2268   -6.4344   -1.7208 O   0  0
    2.7241   -5.1285   -0.1685 O   0  0
    6.3704   -4.9622    0.0529 C   0  0
    5.9877   -6.1981    0.5629 C   0  0
    6.9852   -7.1362    0.8256 C   0  0
    8.3028   -6.9411    0.5856 N   0  0
    8.6427   -5.7421    0.0569 C   0  0
    7.7170   -4.7321   -0.2211 C   0  0
    9.9656   -5.5079   -0.2519 O   0  0
   10.9178   -6.4258    0.3058 C   0  0
   11.2253   -7.5539   -0.6840 C   0  0
   12.3701   -8.4411   -0.1908 C   0  0
   13.5301   -7.6138    0.1439 N   0  0
   13.2943   -6.5195    1.0924 C   0  0
   12.1866   -5.6176    0.5772 C   0  0
   14.8310   -8.0555   -0.0487 C   0  0
   15.2087   -9.4010    0.0682 C   0  0
   16.5337   -9.8090   -0.1261 C   0  0
   17.5086   -8.8725   -0.4535 C   0  0
   17.1607   -7.5331   -0.5918 C   0  0
   15.8365   -7.1365   -0.3922 C   0  0
    8.1833   -3.2069   -0.8763 Cl  0  0
    4.6122   -6.5044    0.8341 N   0  0
    2.4675   -7.7157   -0.2903 C   0  0
    1.1150   -7.4976    0.0083 C   0  0
    0.2459   -8.5807    0.1415 C   0  0
    0.7223   -9.8769   -0.0292 C   0  0
    2.0650  -10.0994   -0.3291 C   0  0
    2.9451   -9.0188   -0.4626 C   0  0
    4.5919   -9.4097   -0.7899 Cl  0  0
   -0.3457  -11.2111    0.1425 Cl  0  0
    5.6356   -4.1883   -0.1473 H   0  0
    6.7504   -8.1128    1.2386 H   0  0
   10.5752   -6.8340    1.2664 H   0  0
   10.3318   -8.1634   -0.8601 H   0  0
   11.4858   -7.1193   -1.6585 H   0  0
   12.0575   -9.0146    0.6901 H   0  0
   12.6105   -9.1564   -0.9867 H   0  0
   13.0178   -6.9439    2.0660 H   0  0
   14.1870   -5.9080    1.2652 H   0  0
   12.5079   -5.1074   -0.3408 H   0  0
   11.9744   -4.8243    1.3043 H   0  0
   14.4729  -10.1533    0.3359 H   0  0
   16.8050  -10.8565   -0.0201 H   0  0
   18.5365   -9.1881   -0.6069 H   0  0
   17.9145   -6.7987   -0.8636 H   0  0
   15.5612   -6.0946   -0.5439 H   0  0
    4.4556   -7.3670    1.3538 H   0  0
    0.7183   -6.4902    0.1346 H   0  0
   -0.8002   -8.4013    0.3746 H   0  0
    2.4290  -11.1170   -0.4567 H   0  0
  1  3  2  0
  1 25  1  0
  2  1  2  0
  4  5  2  0
  4 33  1  0
  5  6  1  0
  5 24  1  0
  6  7  2  0
  6 34  1  0
  7  8  1  0
  8  9  2  0
  8 10  1  0
  9  4  1  0
  9 23  1  0
 10 11  1  0
 11 12  1  0
 11 16  1  0
 11 35  1  0
 12 13  1  0
 12 36  1  0
 12 37  1  0
 13 14  1  0
 13 38  1  0
 13 39  1  0
 14 15  1  0
 14 17  1  0
 15 16  1  0
 15 40  1  0
 15 41  1  0
 16 42  1  0
 16 43  1  0
 17 18  2  0
 18 19  1  0
 18 44  1  0
 19 20  2  0
 19 45  1  0
 20 21  1  0
 20 46  1  0
 21 22  2  0
 21 47  1  0
 22 17  1  0
 22 48  1  0
 24  1  1  0
 24 49  1  0
 25 26  2  0
 26 27  1  0
 26 50  1  0
 27 28  2  0
 27 51  1  0
 28 29  1  0
 28 32  1  0
 29 30  2  0
 29 52  1  0
 30 25  1  0
 30 31  1  0
M  END
> <Name>
CHEMBL2424946

> <Clean Energy>
10.3977

> <chembl_id>
CHEMBL2424946

> <chembl_pref_name>
None

> <efficacy>
0.14

> <Forcefield>
MMFF

> <ForcefieldBase>
MMFF

> <ForcefieldFFML>
<?xml version="1.0" encoding="UTF-8"?>
<!DOCTYPE ffml SYSTEM "Ffml.dtd">
<ffml version="1.0">
<forcefield name="MMFF" derivedFrom="MMFF" base="MMFF">
<atomTypes>
<atomType
name="S100"
element="S"
mass="32.066"
annotation=""/>
<atomType
name="O101"
element="O"
mass="16"
annotation=""/>
<atomType
name="C102"
element="C"
mass="12.011"
annotation=""/>
<atomType
name="N103"
element="N"
mass="14.007"
annotation=""/>
<atomType
name="Cl104"
element="Cl"
mass="35.453"
annotation=""/>
<atomType
name="H105"
element="H"
mass="1.008"
annotation=""/>
</atomTypes>
<parameters>
</parameters>
</forcefield>
</ffml>

> <Initial Potential Energy>
79.26769

> <Initial RMS Gradient>
33.02181

> <Minimization Criteria>
CONJUG> Minimization exiting with gradient tolerance ( 0.0100000) satisfied.

> <CHARMm Energy>
0.33618

> <Potential Energy>
0.33618

> <RMS Gradient>
0.00958

> <Bond Energy>
4.60256

> <Angle Energy>
16.67745

> <STRBend>
0.928

> <Dihedral Energy>
10.09554

> <OOPLane>
0.62849

> <Van der Waals Energy>
64.40939

> <Electrostatic Energy>
-97.00525

> <Hydrogen Bond Energy>
0

> <Solvation Free Energy>
0

> <HasGasteigerCharges>
true

> <REMARK99>
REMARK  99  MacroMolecule created from Mol2 file
REMARK  99  CHEMBL2424946
REMARK  99  PROTEIN
REMARK  99  GASTEIGER
REMARK  99
REMARK  99

$$$$
CHEMBL1946568
  SciTegic05292516403D

 64 67  0  0  0  0            999 V2000
    7.3995  -25.3602   -0.5009 C   0  0
    7.3194  -26.7169   -0.1127 C   0  0
    8.4829  -27.3718    0.3481 C   0  0
    8.5946  -24.6379   -0.4049 C   0  0
    9.7065  -25.2762    0.1143 C   0  0
    9.6595  -26.6397    0.4407 C   0  0
   10.9461  -27.0315    0.8511 N   0  0
   11.7973  -25.8987    0.8420 C   0  0
   11.0147  -24.8122    0.3650 N   0  0
   11.4745  -23.4859    0.2160 C   0  0
   11.3669  -28.3262    1.3270 C   0  0
   12.3593  -29.0146    0.4075 C   0  0
   11.9249  -29.8570   -0.6214 C   0  0
   12.8512  -30.4519   -1.4875 C   0  0
   14.2233  -30.2136   -1.3435 C   0  0
   14.6749  -29.3891   -0.3106 C   0  0
   13.7425  -28.7880    0.5461 C   0  0
   15.9759  -28.9848   -0.1629 O   0  0
   16.8879  -29.9782    0.3254 C   0  0  1  0  0  0
   18.2944  -29.5023   -0.0310 C   0  0
   19.2138  -30.5053   -0.0056 O   0  0
   18.6208  -28.3537   -0.2949 O   0  0
   16.7819  -30.0943    1.8423 C   0  0
    5.9749  -27.4241   -0.1707 C   0  0
    5.2040  -27.0282   -1.2231 F   0  0
    6.1108  -28.7736   -0.2782 F   0  0
    5.2220  -27.1967    0.9420 F   0  0
   15.2924  -30.9109   -2.5074 Cl  0  0
   12.7990  -23.2448   -0.1607 C   0  0
   13.2871  -21.9391   -0.3217 C   0  0
   12.4819  -20.8199   -0.0809 C   0  0
   11.1634  -21.0733    0.3308 C   0  0
   10.6674  -22.3771    0.4745 C   0  0
   12.9853  -19.3724   -0.2348 C   0  0
   14.4527  -19.2722   -0.7090 C   0  0
   12.1178  -18.6278   -1.2722 C   0  0
   12.8916  -18.6441    1.1230 C   0  0
   12.9555  -25.8786    1.2325 O   0  0
    6.5126  -24.8565   -0.8863 H   0  0
    8.4529  -28.4202    0.6272 H   0  0
    8.6164  -23.6091   -0.7467 H   0  0
   11.8381  -28.1856    2.3083 H   0  0
   10.5010  -28.9758    1.4930 H   0  0
   10.8638  -30.0460   -0.7713 H   0  0
   12.4909  -31.0837   -2.2959 H   0  0
   14.1063  -28.1033    1.3122 H   0  0
   16.7179  -30.9475   -0.1530 H   0  0
   18.8605  -31.3919    0.1942 H   0  0
   17.5391  -30.7736    2.2467 H   0  0
   15.7961  -30.4670    2.1386 H   0  0
   16.9108  -29.1161    2.3194 H   0  0
   13.4778  -24.0704   -0.3673 H   0  0
   14.3174  -21.8358   -0.6420 H   0  0
   10.4953  -20.2477    0.5633 H   0  0
    9.6572  -22.4884    0.8559 H   0  0
   14.7648  -18.2256   -0.8097 H   0  0
   14.5939  -19.7463   -1.6873 H   0  0
   15.1401  -19.7454    0.0019 H   0  0
   12.4786  -17.6041   -1.4274 H   0  0
   11.0703  -18.5542   -0.9600 H   0  0
   12.1369  -19.1390   -2.2421 H   0  0
   13.2771  -17.6205    1.0499 H   0  0
   13.4739  -19.1660    1.8916 H   0  0
   11.8599  -18.5730    1.4843 H   0  0
  1  2  2  0
  1 39  1  0
  2  3  1  0
  2 24  1  0
  3  6  2  0
  3 40  1  0
  4  1  1  0
  4 41  1  0
  5  4  2  0
  5  6  1  0
  6  7  1  0
  7  8  1  0
  7 11  1  0
  8  9  1  0
  8 38  2  0
  9  5  1  0
  9 10  1  0
 10 29  2  0
 11 12  1  0
 11 42  1  0
 11 43  1  0
 12 13  2  0
 13 14  1  0
 13 44  1  0
 14 15  2  0
 14 45  1  0
 15 16  1  0
 15 28  1  0
 16 17  2  0
 16 18  1  0
 17 12  1  0
 17 46  1  0
 18 19  1  0
 19 20  1  0
 19 23  1  0
 19 47  1  0
 20 21  1  0
 20 22  2  0
 21 48  1  0
 23 49  1  0
 23 50  1  0
 23 51  1  0
 24 25  1  0
 24 26  1  0
 24 27  1  0
 29 30  1  0
 29 52  1  0
 30 31  2  0
 30 53  1  0
 31 32  1  0
 31 34  1  0
 32 33  2  0
 32 54  1  0
 33 10  1  0
 33 55  1  0
 34 35  1  0
 34 36  1  0
 34 37  1  0
 35 56  1  0
 35 57  1  0
 35 58  1  0
 36 59  1  0
 36 60  1  0
 36 61  1  0
 37 62  1  0
 37 63  1  0
 37 64  1  0
M  END
> <Name>
CHEMBL1946568

> <Clean Energy>
78.720299

> <chembl_id>
CHEMBL1946568

> <chembl_pref_name>
None

> <efficacy>
0.312978723

> <Forcefield>
MMFF

> <ForcefieldBase>
MMFF

> <ForcefieldFFML>
<?xml version="1.0" encoding="UTF-8"?>
<!DOCTYPE ffml SYSTEM "Ffml.dtd">
<ffml version="1.0">
<forcefield name="MMFF" derivedFrom="MMFF" base="MMFF">
<atomTypes>
<atomType
name="C100"
element="C"
mass="12.011"
annotation=""/>
<atomType
name="N101"
element="N"
mass="14.007"
annotation=""/>
<atomType
name="O102"
element="O"
mass="16"
annotation=""/>
<atomType
name="F103"
element="F"
mass="18.998"
annotation=""/>
<atomType
name="Cl104"
element="Cl"
mass="35.453"
annotation=""/>
<atomType
name="H105"
element="H"
mass="1.008"
annotation=""/>
</atomTypes>
<parameters>
</parameters>
</forcefield>
</ffml>

> <Initial Potential Energy>
247.4594

> <Initial RMS Gradient>
29.33293

> <Minimization Criteria>
STEEPD> Minimization exiting with gradient tolerance ( 3.0000000) satisfied.

> <CHARMm Energy>
128.70007

> <Potential Energy>
128.70007

> <RMS Gradient>
0.03735

> <Bond Energy>
10.79621

> <Angle Energy>
36.95398

> <STRBend>
-1.51831

> <Dihedral Energy>
15.37569

> <OOPLane>
0.30889

> <Van der Waals Energy>
70.87944

> <Electrostatic Energy>
-4.09581

> <Hydrogen Bond Energy>
0

> <Solvation Free Energy>
0

> <HasGasteigerCharges>
true

> <REMARK99>
REMARK  99  MacroMolecule created from Mol2 file
REMARK  99  CHEMBL1946568
REMARK  99  PROTEIN
REMARK  99  GASTEIGER
REMARK  99
REMARK  99

$$$$
CHEMBL5088299
  SciTegic05292516403D

 62 66  0  0  0  0            999 V2000
   11.6746  -13.4360   -2.5112 O   0  0
   12.6127  -13.1818   -1.4351 S   0  0
   14.0281  -12.9687   -1.6668 O   0  0
    2.0605   -7.9557    3.1186 F   0  0
    2.8442   -7.9855    2.0039 C   0  0
    2.6472   -6.7923    1.3806 F   0  0
   -1.1645  -11.5510   -1.7740 O   0  0
   -1.5947  -11.2368   -0.4243 S   0  0
   -2.8558  -11.7539    0.0798 O   0  0
    1.3452   -9.8817    1.3058 C   0  0
    0.9656  -10.9488    0.4793 C   0  0
    1.8119  -11.3049   -0.5758 C   0  0
    3.0063  -10.6138   -0.7971 C   0  0
    3.3983   -9.5421    0.0285 C   0  0
    2.5484   -9.1664    1.0956 C   0  0
    4.6986   -8.8252   -0.2927 C   0  0
    5.8728   -9.6558   -0.1228 N   0  0
    7.1266   -9.0778   -0.1135 C   0  0
    8.3145   -9.9738   -0.1713 C   0  0
    7.3194   -7.8647   -0.0846 O   0  0
    8.3065  -11.2033   -0.8337 C   0  0
    9.4924  -11.9332   -1.0226 C   0  0
    9.5174   -9.4715    0.3491 C   0  0
   10.7203  -10.1800    0.1637 C   0  0
   10.7011  -11.3891   -0.5446 C   0  0
   12.0285  -11.7712   -0.6568 N   0  0
   12.8512  -10.9191    0.0379 C   0  0
   12.0659   -9.9108    0.5424 C   0  0
   -0.3152  -11.7049    0.7318 C   0  0
   -1.7272   -9.4262   -0.2643 C   0  0
    4.1278   -7.9823    2.4603 F   0  0
   12.4356  -14.4399   -0.2043 C   0  0
   -0.9379   -8.6239   -1.2633 C   0  0
   -2.4268   -8.7695   -1.4252 C   0  0
   13.2098  -14.3769    0.9619 C   0  0
   13.0614  -15.3601    1.9397 C   0  0
   12.1570  -16.4033    1.7419 C   0  0
   11.4163  -16.4665    0.5649 C   0  0
   11.5456  -15.4945   -0.4176 C   0  0
   10.5875  -17.4999    0.3676 F   0  0
    0.6973   -9.5902    2.1339 H   0  0
    1.5259  -12.1147   -1.2488 H   0  0
    3.6398  -10.9141   -1.6333 H   0  0
    4.6735   -8.5092   -1.3435 H   0  0
    4.8185   -7.9070    0.2882 H   0  0
    5.7669  -10.6581   -0.0628 H   0  0
    7.3903  -11.5877   -1.2767 H   0  0
    9.4734  -12.8600   -1.5909 H   0  0
    9.5427   -8.5046    0.8487 H   0  0
   13.9224  -11.0762    0.0809 H   0  0
   12.4063   -9.0531    1.1087 H   0  0
   -0.1553  -12.7834    0.6322 H   0  0
   -0.6977  -11.5135    1.7398 H   0  0
   -1.8956   -9.0315    0.7262 H   0  0
   -0.5531   -7.6601   -0.9492 H   0  0
   -0.3015   -9.1300   -1.9814 H   0  0
   -2.7872   -9.3842   -2.2433 H   0  0
   -3.0494   -7.9063   -1.2192 H   0  0
   13.9279  -13.5748    1.1186 H   0  0
   13.6554  -15.3199    2.8505 H   0  0
   12.0335  -17.1764    2.4937 H   0  0
   10.9590  -15.5783   -1.3279 H   0  0
  2  1  2  0
  2 32  1  0
  3  2  2  0
  5  4  1  0
  5 31  1  0
  6  5  1  0
  8  7  2  0
  8 30  1  0
  9  8  2  0
 10 11  2  0
 10 41  1  0
 11 12  1  0
 11 29  1  0
 12 13  2  0
 12 42  1  0
 13 14  1  0
 13 43  1  0
 14 15  2  0
 14 16  1  0
 15  5  1  0
 15 10  1  0
 16 17  1  0
 16 44  1  0
 16 45  1  0
 17 18  1  0
 17 46  1  0
 18 19  1  0
 18 20  2  0
 19 21  2  0
 21 22  1  0
 21 47  1  0
 22 25  2  0
 22 48  1  0
 23 19  1  0
 23 49  1  0
 24 23  2  0
 24 25  1  0
 25 26  1  0
 26  2  1  0
 26 27  1  0
 27 28  2  0
 27 50  1  0
 28 24  1  0
 28 51  1  0
 29  8  1  0
 29 52  1  0
 29 53  1  0
 30 34  1  0
 30 54  1  0
 32 35  2  0
 33 30  1  0
 33 55  1  0
 33 56  1  0
 34 33  1  0
 34 57  1  0
 34 58  1  0
 35 36  1  0
 35 59  1  0
 36 37  2  0
 36 60  1  0
 37 38  1  0
 37 61  1  0
 38 39  2  0
 38 40  1  0
 39 32  1  0
 39 62  1  0
M  END
> <Name>
CHEMBL5088299

> <Clean Energy>
90.8955

> <chembl_id>
CHEMBL5088299

> <chembl_pref_name>
None

> <efficacy>
0.161443495

> <Forcefield>
MMFF

> <ForcefieldBase>
MMFF

> <ForcefieldFFML>
<?xml version="1.0" encoding="UTF-8"?>
<!DOCTYPE ffml SYSTEM "Ffml.dtd">
<ffml version="1.0">
<forcefield name="MMFF" derivedFrom="MMFF" base="MMFF">
<atomTypes>
<atomType
name="O100"
element="O"
mass="16"
annotation=""/>
<atomType
name="S101"
element="S"
mass="32.066"
annotation=""/>
<atomType
name="F102"
element="F"
mass="18.998"
annotation=""/>
<atomType
name="C103"
element="C"
mass="12.011"
annotation=""/>
<atomType
name="N104"
element="N"
mass="14.007"
annotation=""/>
<atomType
name="H105"
element="H"
mass="1.008"
annotation=""/>
</atomTypes>
<parameters>
</parameters>
</forcefield>
</ffml>

> <Initial Potential Energy>
637.06973

> <Initial RMS Gradient>
209.68993

> <Minimization Criteria>
CONJUG> Minimization exiting with gradient tolerance ( 0.0100000) satisfied.

> <CHARMm Energy>
185.74828

> <Potential Energy>
185.74828

> <RMS Gradient>
0.00988

> <Bond Energy>
7.51148

> <Angle Energy>
15.99211

> <STRBend>
1.09771

> <Dihedral Energy>
6.93886

> <OOPLane>
0.16837

> <Van der Waals Energy>
56.99951

> <Electrostatic Energy>
97.04023

> <Hydrogen Bond Energy>
0

> <Solvation Free Energy>
0

> <HasGasteigerCharges>
true

> <REMARK99>
REMARK  99  MacroMolecule created from Mol2 file
REMARK  99  CHEMBL5088299
REMARK  99  PROTEIN
REMARK  99  GASTEIGER
REMARK  99
REMARK  99

$$$$
CHEMBL178236
  SciTegic05292516403D

 65 68  0  0  0  0            999 V2000
   -0.5184   -1.7405   -0.4721 N   0  0
    0.5404   -0.9867   -0.9986 C   0  0
    0.2463    0.3652   -0.8596 C   0  0
   -1.3890   -0.8558    0.1777 C   0  0
   -0.9743    0.4442   -0.1229 C   0  0
   -0.6939   -3.1526   -0.5912 C   0  0
   -4.8144    2.3350    2.0476 C   0  0
    7.4203    3.9836    0.4320 C   0  0
   -2.4942   -1.0712    1.0222 C   0  0
    1.0134    1.5375   -1.4085 C   0  0
   -1.9634   -3.8846   -0.3787 C   0  0
   -1.7423    1.5350    0.3448 C   0  0
    5.6313    2.8411   -0.7075 O   0  0
    6.8096    2.6263    0.0971 C   0  0  1  0  0  0
   -3.4879    2.4697    1.5591 O   0  0
    0.2705   -3.8387   -0.9288 O   0  0
   -2.8601    1.3280    1.1533 C   0  0
    8.1685    4.1905    1.3781 O   0  0
    4.4250    2.6364   -0.0959 C   0  0
    2.1043    1.9429   -0.4401 C   0  0
   -1.9841   -4.9564    0.5163 C   0  0
   -3.1120   -3.5623   -1.1109 C   0  0
   -5.3547    3.5658    2.1975 F   0  0
   -4.8386    1.7255    3.2541 F   0  0
   -5.5955    1.6451    1.1865 F   0  0
   -3.2099    0.0327    1.5038 C   0  0
    3.4057    2.1563   -0.9266 C   0  0
    1.7272   -1.6137   -1.6560 C   0  0
    7.1256    4.9513   -0.4745 O   0  0
   -4.3212   -5.3620   -0.0195 C   0  0
   -3.1657   -5.6775    0.7030 C   0  0
   -4.2907   -4.2995   -0.9258 C   0  0
   -5.3979   -6.1613    0.2526 O   0  0
    2.8643    2.7361    1.7346 C   0  0
    4.1481    2.9444    1.2329 C   0  0
    1.8525    2.2466    0.9059 C   0  0
    7.7809    1.8020   -0.7557 C   0  0
   -6.5460   -6.0121   -0.5751 C   0  0
    8.9869    1.2987    0.0216 C   0  0
   -2.8141   -2.0640    1.3308 H   0  0
    1.4350    1.2692   -2.3847 H   0  0
    0.3535    2.3956   -1.5817 H   0  0
   -1.4416    2.5509    0.1003 H   0  0
    6.5807    2.0881    1.0242 H   0  0
   -1.0882   -5.2377    1.0645 H   0  0
   -3.1013   -2.7510   -1.8352 H   0  0
   -4.0504   -0.1762    2.1616 H   0  0
    3.6338    1.9624   -1.9733 H   0  0
    2.4466   -0.8583   -1.9861 H   0  0
    1.4266   -2.1837   -2.5407 H   0  0
    2.2548   -2.2717   -0.9583 H   0  0
    6.4385    4.6086   -1.0905 H   0  0
   -3.1827   -6.5042    1.4090 H   0  0
   -5.1652   -4.0219   -1.5060 H   0  0
    2.6432    2.9784    2.7717 H   0  0
    4.8931    3.3686    1.8970 H   0  0
    0.8602    2.1229    1.3302 H   0  0
    7.2464    0.9407   -1.1762 H   0  0
    8.1225    2.3917   -1.6160 H   0  0
   -7.2774   -6.7677   -0.2729 H   0  0
   -6.2994   -6.1860   -1.6279 H   0  0
   -7.0037   -5.0275   -0.4348 H   0  0
    9.6085    0.6653   -0.6193 H   0  0
    8.6765    0.7033    0.8859 H   0  0
    9.6101    2.1250    0.3761 H   0  0
  2  1  1  0
  3  2  2  0
  3  5  1  0
  4  1  1  0
  5  4  1  0
  6  1  1  0
  7 15  1  0
  8 14  1  0
  9  4  2  0
  9 40  1  0
 10  3  1  0
 10 41  1  0
 10 42  1  0
 11  6  1  0
 12  5  2  0
 12 43  1  0
 13 19  1  0
 14 13  1  0
 14 44  1  0
 15 17  1  0
 16  6  2  0
 17 12  1  0
 17 26  2  0
 18  8  2  0
 19 27  2  0
 20 10  1  0
 21 11  1  0
 21 45  1  0
 22 11  2  0
 22 46  1  0
 23  7  1  0
 24  7  1  0
 25  7  1  0
 26  9  1  0
 26 47  1  0
 27 20  1  0
 27 48  1  0
 28  2  1  0
 28 49  1  0
 28 50  1  0
 28 51  1  0
 29  8  1  0
 29 52  1  0
 30 31  1  0
 30 32  2  0
 31 21  2  0
 31 53  1  0
 32 22  1  0
 32 54  1  0
 33 30  1  0
 34 36  1  0
 34 55  1  0
 35 19  1  0
 35 34  2  0
 35 56  1  0
 36 20  2  0
 36 57  1  0
 37 14  1  0
 37 58  1  0
 37 59  1  0
 38 33  1  0
 38 60  1  0
 38 61  1  0
 38 62  1  0
 39 37  1  0
 39 63  1  0
 39 64  1  0
 39 65  1  0
M  END
> <Name>
CHEMBL178236

> <Clean Energy>
66.193604

> <chembl_id>
CHEMBL178236

> <chembl_pref_name>
None

> <efficacy>
0.36

> <Forcefield>
MMFF

> <ForcefieldBase>
MMFF

> <ForcefieldFFML>
<?xml version="1.0" encoding="UTF-8"?>
<!DOCTYPE ffml SYSTEM "Ffml.dtd">
<ffml version="1.0">
<forcefield name="MMFF" derivedFrom="MMFF" base="MMFF">
<atomTypes>
<atomType
name="N100"
element="N"
mass="14.007"
annotation=""/>
<atomType
name="C101"
element="C"
mass="12.011"
annotation=""/>
<atomType
name="O102"
element="O"
mass="16"
annotation=""/>
<atomType
name="F103"
element="F"
mass="18.998"
annotation=""/>
<atomType
name="H104"
element="H"
mass="1.008"
annotation=""/>
</atomTypes>
<parameters>
</parameters>
</forcefield>
</ffml>

> <Initial Potential Energy>
542.05132

> <Initial RMS Gradient>
156.33452

> <Minimization Criteria>
STEEPD> Minimization exiting with gradient tolerance ( 3.0000000) satisfied.

> <CHARMm Energy>
127.20798

> <Potential Energy>
127.20798

> <RMS Gradient>
0.06116

> <Bond Energy>
9.0391

> <Angle Energy>
29.01887

> <STRBend>
-0.41141

> <Dihedral Energy>
10.97916

> <OOPLane>
0.31404

> <Van der Waals Energy>
71.97678

> <Electrostatic Energy>
6.29145

> <Hydrogen Bond Energy>
0

> <Solvation Free Energy>
0

> <HasGasteigerCharges>
true

> <REMARK99>
REMARK  99  MacroMolecule created from Mol2 file
REMARK  99  CHEMBL178236
REMARK  99  PROTEIN
REMARK  99  GASTEIGER
REMARK  99
REMARK  99

$$$$
CHEMBL69018
  SciTegic05292516403D

 43 42  0  0  0  0            999 V2000
  -10.4411    3.1209   -0.0923 C   0  0
  -10.6603    1.9048    0.4423 C   0  0
   -9.9261    0.6228    0.1625 C   0  0
   -9.0897    0.1897    1.3691 C   0  0
   -9.4063    3.5899   -1.0776 C   0  0  2  0  0  0
   -9.8306    3.2161   -2.3802 O   0  0
   -8.1385   -0.9714    1.0652 C   0  0
   -8.8569   -2.2653    0.6755 C   0  0
   -7.8574   -3.4087    0.4792 C   0  0
   -8.5234   -4.7561    0.1942 C   0  0
   -9.2727   -4.7944   -1.1286 C   0  0
   -8.0579    3.0802   -0.8164 C   0  0
   -6.9483    2.6673   -0.6135 C   0  0
   -5.6875    2.1811   -0.3743 C   0  0
   -4.5870    1.7532   -0.1540 C   0  0
   -3.2423    1.2432    0.1366 C   0  0  1  0  0  0
   -3.1867   -0.2427   -0.1012 C   0  0
   -2.2955    1.9200   -0.6774 O   0  0
   -2.2837   -0.9133   -0.8339 C   0  0
  -11.1171    3.9173    0.2228 H   0  0
  -11.4838    1.8128    1.1522 H   0  0
  -10.6738   -0.1457   -0.0673 H   0  0
   -9.2970    0.7051   -0.7282 H   0  0
   -8.4867    1.0352    1.7239 H   0  0
   -9.7532   -0.0885    2.1978 H   0  0
   -9.3745    4.6851   -1.0514 H   0  0
   -9.9436    2.2516   -2.3605 H   0  0
   -7.4470   -0.6788    0.2655 H   0  0
   -7.5274   -1.1535    1.9580 H   0  0
   -9.5781   -2.5350    1.4560 H   0  0
   -9.4192   -2.1076   -0.2505 H   0  0
   -7.1677   -3.1598   -0.3367 H   0  0
   -7.2488   -3.5136    1.3859 H   0  0
   -7.7464   -5.5298    0.1768 H   0  0
   -9.2086   -5.0144    1.0100 H   0  0
   -9.6398   -5.8073   -1.3230 H   0  0
   -8.6199   -4.5053   -1.9583 H   0  0
  -10.1381   -4.1254   -1.1193 H   0  0
   -2.9860    1.4434    1.1821 H   0  0
   -3.9592   -0.8224    0.4025 H   0  0
   -2.5925    1.7955   -1.5943 H   0  0
   -1.4619   -0.4132   -1.3392 H   0  0
   -2.3329   -1.9949   -0.9228 H   0  0
  1  2  2  0
  1  5  1  0
  1 20  1  0
  2  3  1  0
  2 21  1  0
  3  4  1  0
  3 22  1  0
  3 23  1  0
  4  7  1  0
  4 24  1  0
  4 25  1  0
  5  6  1  0
  5 12  1  0
  5 26  1  0
  6 27  1  0
  7  8  1  0
  7 28  1  0
  7 29  1  0
  8  9  1  0
  8 30  1  0
  8 31  1  0
  9 10  1  0
  9 32  1  0
  9 33  1  0
 10 11  1  0
 10 34  1  0
 10 35  1  0
 11 36  1  0
 11 37  1  0
 11 38  1  0
 12 13  3  0
 13 14  1  0
 14 15  3  0
 15 16  1  0
 16 17  1  0
 16 18  1  0
 16 39  1  0
 17 19  2  0
 17 40  1  0
 18 41  1  0
 19 42  1  0
 19 43  1  0
M  END
> <Name>
CHEMBL69018

> <Clean Energy>
118.767998

> <chembl_id>
CHEMBL69018

> <chembl_pref_name>
FALCARINDIOL

> <efficacy>
0.333611684

> <Forcefield>
MMFF

> <ForcefieldBase>
MMFF

> <ForcefieldFFML>
<?xml version="1.0" encoding="UTF-8"?>
<!DOCTYPE ffml SYSTEM "Ffml.dtd">
<ffml version="1.0">
<forcefield name="MMFF" derivedFrom="MMFF" base="MMFF">
<atomTypes>
<atomType
name="C100"
element="C"
mass="12.011"
annotation=""/>
<atomType
name="O101"
element="O"
mass="16"
annotation=""/>
<atomType
name="H102"
element="H"
mass="1.008"
annotation=""/>
</atomTypes>
<parameters>
</parameters>
</forcefield>
</ffml>

> <Initial Potential Energy>
191.64751

> <Initial RMS Gradient>
30.64802

> <Minimization Criteria>
STEEPD> Minimization exiting with gradient tolerance ( 3.0000000) satisfied.

> <CHARMm Energy>
-14.18668

> <Potential Energy>
-14.18668

> <RMS Gradient>
0.04009

> <Bond Energy>
1.62947

> <Angle Energy>
6.74036

> <STRBend>
0.03182

> <Dihedral Energy>
-14.91132

> <OOPLane>
0.00347

> <Van der Waals Energy>
14.61385

> <Electrostatic Energy>
-22.29433

> <Hydrogen Bond Energy>
0

> <Solvation Free Energy>
0

> <HasGasteigerCharges>
true

> <REMARK99>
REMARK  99  MacroMolecule created from Mol2 file
REMARK  99  CHEMBL69018
REMARK  99  PROTEIN
REMARK  99  GASTEIGER
REMARK  99
REMARK  99

$$$$
CHEMBL64972
  SciTegic05292516403D

 48 50  0  0  0  0            999 V2000
    2.1606   -2.9487    0.0529 N   0  0
    1.2924   -1.9863    0.3128 C   0  0
    1.8528   -0.9143    0.9680 O   0  0
    3.3378   -2.5240    0.6186 C   0  0
    3.1551   -1.2741    1.1685 C   0  0
   12.7511    0.2176   -1.1980 C   0  0
   12.0644   -0.8781   -0.3795 C   0  0  1  0  0  0
   11.8014   -2.0229   -1.2001 O   0  0
   -0.1324   -1.9069    0.0041 C   0  0
   13.2537    0.0766   -2.3037 O   0  0
    4.5347   -3.3957    0.6025 C   0  0
   10.5253   -2.4724   -1.0219 C   0  0
   12.8124    1.4158   -0.5521 O   0  0
    7.9259   -3.3566   -0.5970 C   0  0
    5.6025   -2.9278   -0.3779 C   0  0
    9.4756   -1.8787   -1.7181 C   0  0
   10.3017   -3.5499   -0.1714 C   0  0
    8.1695   -2.3229   -1.5034 C   0  0
    8.9966   -3.9890    0.0415 C   0  0
    6.6915   -3.8500   -0.2834 O   0  0
    4.0108   -0.3142    1.8860 C   0  0
   12.9957   -1.3046    0.7518 C   0  0
   -0.9038   -0.7858    0.3462 C   0  0
   -0.7647   -2.9795   -0.6438 C   0  0
   -2.1291   -2.9342   -0.9420 C   0  0
   -2.2687   -0.7395    0.0485 C   0  0
   -2.8792   -1.8136   -0.5952 C   0  0
   11.1401   -0.4478    0.0312 H   0  0
    4.9630   -3.4516    1.6116 H   0  0
    4.2436   -4.4251    0.3570 H   0  0
   12.2674    1.4352    0.2600 H   0  0
    5.2160   -2.9295   -1.4039 H   0  0
    5.9153   -1.9095   -0.1126 H   0  0
    9.6700   -1.0802   -2.4288 H   0  0
   11.1339   -4.0402    0.3258 H   0  0
    7.3644   -1.8605   -2.0646 H   0  0
    8.8065   -4.8206    0.7151 H   0  0
    4.2826    0.5172    1.2286 H   0  0
    4.9324   -0.7899    2.2344 H   0  0
    3.4900    0.0920    2.7585 H   0  0
   12.5300   -2.0794    1.3690 H   0  0
   13.2595   -0.4619    1.3985 H   0  0
   13.9235   -1.7302    0.3525 H   0  0
   -0.4483    0.0631    0.8517 H   0  0
   -0.1924   -3.8646   -0.9169 H   0  0
   -2.6020   -3.7744   -1.4438 H   0  0
   -2.8524    0.1355    0.3213 H   0  0
   -3.9400   -1.7788   -0.8260 H   0  0
  2  1  2  0
  3  2  1  0
  4  1  1  0
  5  3  1  0
  5  4  2  0
  6  7  1  0
  7  8  1  0
  7 28  1  0
  8 12  1  0
  9  2  1  0
 10  6  2  0
 11  4  1  0
 11 29  1  0
 11 30  1  0
 12 17  1  0
 13  6  1  0
 13 31  1  0
 14 20  1  0
 15 11  1  0
 15 32  1  0
 15 33  1  0
 16 12  2  0
 16 18  1  0
 16 34  1  0
 17 19  2  0
 17 35  1  0
 18 14  2  0
 18 36  1  0
 19 14  1  0
 19 37  1  0
 20 15  1  0
 21  5  1  0
 21 38  1  0
 21 39  1  0
 21 40  1  0
 22  7  1  0
 22 41  1  0
 22 42  1  0
 22 43  1  0
 23  9  2  0
 23 44  1  0
 24  9  1  0
 24 45  1  0
 25 24  2  0
 25 46  1  0
 26 23  1  0
 26 27  2  0
 26 47  1  0
 27 25  1  0
 27 48  1  0
M  END
> <Name>
CHEMBL64972

> <Clean Energy>
32.489201

> <chembl_id>
CHEMBL64972

> <chembl_pref_name>
None

> <efficacy>
0.42

> <Forcefield>
MMFF

> <ForcefieldBase>
MMFF

> <ForcefieldFFML>
<?xml version="1.0" encoding="UTF-8"?>
<!DOCTYPE ffml SYSTEM "Ffml.dtd">
<ffml version="1.0">
<forcefield name="MMFF" derivedFrom="MMFF" base="MMFF">
<atomTypes>
<atomType
name="N100"
element="N"
mass="14.007"
annotation=""/>
<atomType
name="C101"
element="C"
mass="12.011"
annotation=""/>
<atomType
name="O102"
element="O"
mass="16"
annotation=""/>
<atomType
name="H103"
element="H"
mass="1.008"
annotation=""/>
</atomTypes>
<parameters>
</parameters>
</forcefield>
</ffml>

> <Initial Potential Energy>
144.68988

> <Initial RMS Gradient>
28.43097

> <Minimization Criteria>
CONJUG> Minimization exiting with gradient tolerance ( 0.0100000) satisfied.

> <CHARMm Energy>
68.68069

> <Potential Energy>
68.68069

> <RMS Gradient>
0.00747

> <Bond Energy>
3.65467

> <Angle Energy>
10.56916

> <STRBend>
0.03068

> <Dihedral Energy>
6.98625

> <OOPLane>
0.06621

> <Van der Waals Energy>
42.87221

> <Electrostatic Energy>
4.5015

> <Hydrogen Bond Energy>
0

> <Solvation Free Energy>
0

> <HasGasteigerCharges>
true

> <REMARK99>
REMARK  99  MacroMolecule created from Mol2 file
REMARK  99  CHEMBL64972
REMARK  99  PROTEIN
REMARK  99  GASTEIGER
REMARK  99
REMARK  99

$$$$
CHEMBL3115240
  SciTegic05292516403D

 74 78  0  0  0  0            999 V2000
   14.7049  -11.2997    0.2735 C   0  0
   14.8833  -12.6150    0.7026 C   0  0
   14.8384  -13.6836   -0.2103 C   0  0
   14.6183  -13.3960   -1.5673 C   0  0
   14.4451  -12.0788   -1.9957 C   0  0
   14.4951  -11.0335   -1.0765 C   0  0
   15.1435  -15.0925    0.2838 C   0  0  2  0  0  0
   16.5506  -15.3343    0.0270 N   0  0
   14.2660  -16.1803   -0.3587 C   0  0
   14.4264  -17.5301    0.3308 C   0  0
   17.5093  -15.2267    1.0086 C   0  0
   18.8917  -15.0802    0.4873 C   0  0
   17.2759  -15.2202    2.2102 O   0  0
   19.1410  -14.1387   -0.5184 C   0  0
   20.4257  -13.9659   -1.0295 C   0  0
   19.9253  -15.8631    1.0207 C   0  0
   22.5037  -16.3385    0.7833 C   0  0
   21.2329  -15.7154    0.5035 C   0  0
   21.4413  -14.7686   -0.4996 C   0  0
   22.7764  -14.7952   -0.8097 N   0  0
   23.4390  -15.7130   -0.0371 C   0  0
   22.7353  -17.3994    1.8254 C   0  0
   24.9180  -15.8893   -0.1926 C   0  0
   25.6884  -15.3012    0.9892 C   0  0
   27.1869  -15.5038    0.8288 C   0  0
   23.4720  -18.5653    1.2028 C   0  0
   22.9604  -19.2595    0.0977 C   0  0
   23.6526  -20.3452   -0.4508 C   0  0
   24.8663  -20.7832    0.0995 C   0  0
   25.3638  -20.0993    1.2169 C   0  0
   24.6785  -19.0081    1.7624 C   0  0
   25.5542  -21.9680   -0.4417 C   0  0
   24.9268  -23.2235   -0.3147 C   0  0
   25.5313  -24.3925   -0.7856 C   0  0
   26.7776  -24.3336   -1.4023 C   0  0
   27.4230  -23.1079   -1.5461 C   0  0
   26.8188  -21.9343   -1.0633 C   0  0
   27.5476  -20.6642   -1.2735 C   0  0
   28.7363  -20.6603   -0.6313 O   0  0
   27.1200  -19.7359   -1.9351 O   0  0
   14.7346  -10.4818    0.9899 H   0  0
   15.0827  -12.8076    1.7562 H   0  0
   14.5967  -14.1902   -2.3086 H   0  0
   14.2719  -11.8642   -3.0478 H   0  0
   14.3688  -10.0081   -1.4128 H   0  0
   14.9648  -15.1181    1.3665 H   0  0
   16.8565  -15.4036   -0.9354 H   0  0
   13.2107  -15.8856   -0.3018 H   0  0
   14.5085  -16.3055   -1.4209 H   0  0
   13.7641  -18.2694   -0.1307 H   0  0
   14.1691  -17.4614    1.3925 H   0  0
   15.4530  -17.9002    0.2478 H   0  0
   18.3378  -13.5067   -0.8935 H   0  0
   20.6304  -13.2309   -1.8008 H   0  0
   19.7128  -16.5729    1.8146 H   0  0
   23.2120  -14.2033   -1.5032 H   0  0
   23.3084  -16.9660    2.6533 H   0  0
   21.7925  -17.7672    2.2447 H   0  0
   25.1583  -16.9499   -0.3160 H   0  0
   25.2529  -15.4011   -1.1173 H   0  0
   25.4761  -14.2287    1.0781 H   0  0
   25.3663  -15.7653    1.9282 H   0  0
   27.7209  -15.0745    1.6823 H   0  0
   27.5538  -15.0178   -0.0808 H   0  0
   27.4344  -16.5688    0.7740 H   0  0
   22.0219  -18.9463   -0.3562 H   0  0
   23.2325  -20.8473   -1.3200 H   0  0
   26.2895  -20.4149    1.6893 H   0  0
   25.1079  -18.5051    2.6271 H   0  0
   23.9489  -23.2897    0.1654 H   0  0
   25.0220  -25.3478   -0.6755 H   0  0
   27.2386  -25.2415   -1.7826 H   0  0
   28.3824  -23.0637   -2.0578 H   0  0
   28.8813  -21.4431   -0.0671 H   0  0
  1  2  2  0
  1 41  1  0
  2  3  1  0
  2 42  1  0
  3  4  2  0
  3  7  1  0
  4  5  1  0
  4 43  1  0
  5  6  2  0
  5 44  1  0
  6  1  1  0
  6 45  1  0
  7  8  1  0
  7  9  1  0
  7 46  1  0
  8 11  1  0
  8 47  1  0
  9 10  1  0
  9 48  1  0
  9 49  1  0
 10 50  1  0
 10 51  1  0
 10 52  1  0
 11 12  1  0
 11 13  2  0
 12 14  2  0
 14 15  1  0
 14 53  1  0
 15 19  2  0
 15 54  1  0
 16 12  1  0
 16 55  1  0
 17 18  1  0
 17 22  1  0
 18 16  2  0
 18 19  1  0
 19 20  1  0
 20 21  1  0
 20 56  1  0
 21 17  2  0
 21 23  1  0
 22 26  1  0
 22 57  1  0
 22 58  1  0
 23 24  1  0
 23 59  1  0
 23 60  1  0
 24 25  1  0
 24 61  1  0
 24 62  1  0
 25 63  1  0
 25 64  1  0
 25 65  1  0
 26 27  2  0
 27 28  1  0
 27 66  1  0
 28 29  2  0
 28 67  1  0
 29 30  1  0
 29 32  1  0
 30 31  2  0
 30 68  1  0
 31 26  1  0
 31 69  1  0
 32 33  2  0
 33 34  1  0
 33 70  1  0
 34 35  2  0
 34 71  1  0
 35 36  1  0
 35 72  1  0
 36 37  2  0
 36 73  1  0
 37 32  1  0
 37 38  1  0
 38 39  1  0
 38 40  2  0
 39 74  1  0
M  END
> <Name>
CHEMBL3115240

> <Clean Energy>
67.3461

> <chembl_id>
CHEMBL3115240

> <chembl_pref_name>
None

> <efficacy>
0.39

> <Forcefield>
MMFF

> <ForcefieldBase>
MMFF

> <ForcefieldFFML>
<?xml version="1.0" encoding="UTF-8"?>
<!DOCTYPE ffml SYSTEM "Ffml.dtd">
<ffml version="1.0">
<forcefield name="MMFF" derivedFrom="MMFF" base="MMFF">
<atomTypes>
<atomType
name="C100"
element="C"
mass="12.011"
annotation=""/>
<atomType
name="N101"
element="N"
mass="14.007"
annotation=""/>
<atomType
name="O102"
element="O"
mass="16"
annotation=""/>
<atomType
name="H103"
element="H"
mass="1.008"
annotation=""/>
</atomTypes>
<parameters>
</parameters>
</forcefield>
</ffml>

> <Initial Potential Energy>
259.49944

> <Initial RMS Gradient>
32.36194

> <Minimization Criteria>
CONJUG> Minimization exiting with gradient tolerance ( 0.0100000) satisfied.

> <CHARMm Energy>
76.82279

> <Potential Energy>
76.82279

> <RMS Gradient>
0.00983

> <Bond Energy>
9.81232

> <Angle Energy>
9.97984

> <STRBend>
-0.35974

> <Dihedral Energy>
11.21681

> <OOPLane>
0.24417

> <Van der Waals Energy>
74.31859

> <Electrostatic Energy>
-28.38922

> <Hydrogen Bond Energy>
0

> <Solvation Free Energy>
0

> <HasGasteigerCharges>
true

> <REMARK99>
REMARK  99  MacroMolecule created from Mol2 file
REMARK  99  CHEMBL3115240
REMARK  99  PROTEIN
REMARK  99  GASTEIGER
REMARK  99
REMARK  99

$$$$
CHEMBL1209173
  SciTegic05292516403D

 62 66  0  0  0  0            999 V2000
    5.6439  -21.0448   -1.1442 O   0  0
    4.4397  -21.4461   -0.6669 C   0  0
    4.4606  -22.8094   -0.4699 C   0  0
    5.7707  -23.1964   -0.8548 C   0  0
    6.4773  -22.1363   -1.2619 N   0  0
    6.3680  -24.5242   -0.8393 C   0  0
    6.4273  -25.3025   -2.0077 C   0  0
    7.0331  -26.5646   -1.9917 C   0  0
    7.5841  -27.0651   -0.8134 C   0  0
    7.5265  -26.3072    0.3541 C   0  0
    6.9155  -25.0479    0.3456 C   0  0
    6.8582  -24.1878    1.8480 Cl  0  0
    5.7551  -24.7693   -3.5115 Cl  0  0
    2.3453  -23.7287   -0.9934 O   0  0
   -6.1699  -24.4002   -0.3616 C   0  0
   -7.1269  -25.4070   -0.1898 C   0  0
   -6.7361  -26.6015    0.4310 C   0  0
   -5.4275  -26.7738    0.9071 C   0  0
   -4.4627  -25.7641    0.7586 C   0  0
   -4.8463  -24.5831    0.0988 C   0  0
   -3.0744  -25.9297    1.3693 C   0  0
   -2.0870  -26.5984    0.5179 N   0  0
   -0.9392  -25.9098    0.1640 C   0  0
    0.3023  -26.0349    0.8299 C   0  0
    1.4109  -25.3221    0.4456 N   0  0
    1.2690  -24.4795   -0.5948 C   0  0
    0.1089  -24.3127   -1.3203 C   0  0
   -1.0057  -25.0347   -0.9293 C   0  0
    0.5008  -26.9971    1.9943 C   0  0
    3.3675  -23.6829    0.0017 C   0  0
   -0.6352  -27.3330    2.6752 F   0  0
    1.3480  -26.4948    2.9544 F   0  0
    1.0847  -28.1810    1.6201 F   0  0
   -2.4227  -27.7806   -0.2543 C   0  0
    3.2695  -20.5252   -0.4343 C   0  0
    2.8400  -20.2202    0.9776 C   0  0
    3.5199  -19.1629    0.1586 C   0  0
   -8.5479  -25.2828   -0.6320 C   0  0
   -8.9776  -24.0269   -0.8944 O   0  0
   -9.3386  -26.2092   -0.7219 O   0  0
    7.1027  -27.1552   -2.9041 H   0  0
    8.0774  -28.0359   -0.8099 H   0  0
    7.9854  -26.6940    1.2635 H   0  0
   -6.4402  -23.4657   -0.8479 H   0  0
   -7.4613  -27.4031    0.5694 H   0  0
   -5.1721  -27.7009    1.4177 H   0  0
   -4.1209  -23.7811   -0.0378 H   0  0
   -2.7150  -24.9433    1.6939 H   0  0
   -3.1749  -26.5109    2.2954 H   0  0
    0.0729  -23.6302   -2.1613 H   0  0
   -1.9383  -24.9180   -1.4777 H   0  0
    2.9679  -23.2818    0.9427 H   0  0
    3.7566  -24.6915    0.1891 H   0  0
   -2.9372  -27.5103   -1.1826 H   0  0
   -3.0685  -28.4502    0.3223 H   0  0
   -1.5252  -28.3545   -0.5133 H   0  0
    2.4928  -20.5949   -1.1894 H   0  0
    1.7794  -20.1066    1.1708 H   0  0
    3.3969  -20.6523    1.8015 H   0  0
    4.5351  -18.8879    0.4245 H   0  0
    2.9212  -18.3332   -0.2007 H   0  0
   -9.9367  -24.1192   -1.1178 H   0  0
  1  2  1  0
  2  3  2  0
  2 35  1  0
  3  4  1  0
  4  5  2  0
  4  6  1  0
  5  1  1  0
  6  7  2  0
  7  8  1  0
  7 13  1  0
  8  9  2  0
  8 41  1  0
  9 10  1  0
  9 42  1  0
 10 11  2  0
 10 43  1  0
 11  6  1  0
 11 12  1  0
 14 30  1  0
 15 16  2  0
 15 44  1  0
 16 17  1  0
 16 38  1  0
 17 18  2  0
 17 45  1  0
 18 19  1  0
 18 46  1  0
 19 20  2  0
 19 21  1  0
 20 15  1  0
 20 47  1  0
 21 22  1  0
 21 48  1  0
 21 49  1  0
 22 23  1  0
 22 34  1  0
 23 24  2  0
 24 25  1  0
 24 29  1  0
 25 26  2  0
 26 14  1  0
 26 27  1  0
 27 28  2  0
 27 50  1  0
 28 23  1  0
 28 51  1  0
 29 31  1  0
 29 32  1  0
 29 33  1  0
 30  3  1  0
 30 52  1  0
 30 53  1  0
 34 54  1  0
 34 55  1  0
 34 56  1  0
 35 37  1  0
 35 57  1  0
 36 35  1  0
 36 58  1  0
 36 59  1  0
 37 36  1  0
 37 60  1  0
 37 61  1  0
 38 39  1  0
 38 40  2  0
 39 62  1  0
M  END
> <Name>
CHEMBL1209173

> <Clean Energy>
98.888603

> <chembl_id>
CHEMBL1209173

> <chembl_pref_name>
None

> <efficacy>
0

> <Forcefield>
MMFF

> <ForcefieldBase>
MMFF

> <ForcefieldFFML>
<?xml version="1.0" encoding="UTF-8"?>
<!DOCTYPE ffml SYSTEM "Ffml.dtd">
<ffml version="1.0">
<forcefield name="MMFF" derivedFrom="MMFF" base="MMFF">
<atomTypes>
<atomType
name="O100"
element="O"
mass="16"
annotation=""/>
<atomType
name="C101"
element="C"
mass="12.011"
annotation=""/>
<atomType
name="N102"
element="N"
mass="14.007"
annotation=""/>
<atomType
name="Cl103"
element="Cl"
mass="35.453"
annotation=""/>
<atomType
name="F104"
element="F"
mass="18.998"
annotation=""/>
<atomType
name="H105"
element="H"
mass="1.008"
annotation=""/>
</atomTypes>
<parameters>
</parameters>
</forcefield>
</ffml>

> <Initial Potential Energy>
281.71735

> <Initial RMS Gradient>
31.47443

> <Minimization Criteria>
STEEPD> Minimization exiting with gradient tolerance ( 3.0000000) satisfied.

> <CHARMm Energy>
122.13791

> <Potential Energy>
122.13791

> <RMS Gradient>
0.01363

> <Bond Energy>
7.74073

> <Angle Energy>
19.37364

> <STRBend>
1.14159

> <Dihedral Energy>
35.02245

> <OOPLane>
0.52662

> <Van der Waals Energy>
60.06071

> <Electrostatic Energy>
-1.72784

> <Hydrogen Bond Energy>
0

> <Solvation Free Energy>
0

> <HasGasteigerCharges>
true

> <REMARK99>
REMARK  99  MacroMolecule created from Mol2 file
REMARK  99  CHEMBL1209173
REMARK  99  PROTEIN
REMARK  99  GASTEIGER
REMARK  99
REMARK  99

$$$$
CHEMBL1209109
  SciTegic05292516403D

 64 67  0  0  0  0            999 V2000
   17.9300  -19.8216   -0.7262 O   0  0
   16.7029  -20.2317   -0.3150 C   0  0
   16.7035  -21.6058   -0.1974 C   0  0
   18.0237  -21.9870   -0.5489 C   0  0
   18.7533  -20.9146   -0.8725 N   0  0
   15.6692  -19.1757   -0.1140 C   0  0
   16.1628  -18.0857    0.8371 C   0  0
   15.2379  -18.5776   -1.4524 C   0  0
   18.6104  -23.3186   -0.5778 C   0  0
   18.7041  -24.0389   -1.7805 C   0  0
   19.3048  -25.3031   -1.8068 C   0  0
   19.8138  -25.8636   -0.6367 C   0  0
   19.7193  -25.1647    0.5646 C   0  0
   19.1143  -23.9032    0.5977 C   0  0
   19.0084  -23.1185    2.1383 Cl  0  0
   18.0775  -23.4308   -3.2756 Cl  0  0
   14.4959  -22.2892   -0.7203 O   0  0
    5.9473  -23.1396   -0.0709 C   0  0
    5.0186  -24.1862   -0.0515 C   0  0
    5.4492  -25.4559    0.3572 C   0  0
    6.7710  -25.6693    0.7757 C   0  0
    7.7086  -24.6246    0.7773 C   0  0
    7.2836  -23.3613    0.3291 C   0  0
    9.1136  -24.8528    1.3241 C   0  0
   10.0857  -25.3731    0.3606 N   0  0
   11.2280  -24.6334    0.1092 C   0  0
   12.4886  -24.8941    0.6937 C   0  0
   13.5906  -24.1236    0.4198 N   0  0
   13.4236  -23.0942   -0.4321 C   0  0
   12.2415  -22.7800   -1.0674 C   0  0
   11.1327  -23.5588   -0.7865 C   0  0
   12.7137  -26.0674    1.6396 C   0  0
   15.5821  -22.4890    0.1845 C   0  0
   11.5912  -26.5610    2.2429 F   0  0
   13.5597  -25.7523    2.6772 F   0  0
   13.3172  -27.1389    1.0301 F   0  0
    3.5883  -24.0278   -0.4446 C   0  0
    3.1208  -22.7587   -0.4793 O   0  0
    2.8195  -24.9468   -0.6809 O   0  0
    9.7500  -26.4244   -0.5809 C   0  0
   14.7862  -19.6371    0.3460 H   0  0
   15.3719  -17.3527    1.0293 H   0  0
   17.0248  -17.5484    0.4257 H   0  0
   16.4659  -18.5130    1.7995 H   0  0
   14.4437  -17.8372   -1.3087 H   0  0
   14.8552  -19.3546   -2.1237 H   0  0
   16.0733  -18.0826   -1.9606 H   0  0
   19.4019  -25.8483   -2.7445 H   0  0
   20.3035  -26.8354   -0.6649 H   0  0
   20.1453  -25.5989    1.4685 H   0  0
    5.6435  -22.1455   -0.3909 H   0  0
    4.7458  -26.2879    0.3742 H   0  0
    7.0575  -26.6610    1.1223 H   0  0
    7.9865  -22.5285    0.3139 H   0  0
    9.4674  -23.9178    1.7808 H   0  0
    9.0454  -25.5641    2.1579 H   0  0
   12.1868  -21.9462   -1.7576 H   0  0
   10.1834  -23.3337   -1.2686 H   0  0
   15.2702  -22.2440    1.2086 H   0  0
   15.9153  -23.5338    0.1534 H   0  0
    2.1593  -22.8381   -0.6970 H   0  0
    9.2112  -26.0193   -1.4441 H   0  0
    9.1268  -27.1876   -0.1046 H   0  0
   10.6487  -26.9351   -0.9462 H   0  0
  1  2  1  0
  2  3  2  0
  2  6  1  0
  3  4  1  0
  4  5  2  0
  4  9  1  0
  5  1  1  0
  6  7  1  0
  6  8  1  0
  6 41  1  0
  7 42  1  0
  7 43  1  0
  7 44  1  0
  8 45  1  0
  8 46  1  0
  8 47  1  0
  9 10  2  0
 10 11  1  0
 10 16  1  0
 11 12  2  0
 11 48  1  0
 12 13  1  0
 12 49  1  0
 13 14  2  0
 13 50  1  0
 14  9  1  0
 14 15  1  0
 17 33  1  0
 18 19  2  0
 18 51  1  0
 19 20  1  0
 19 37  1  0
 20 21  2  0
 20 52  1  0
 21 22  1  0
 21 53  1  0
 22 23  2  0
 22 24  1  0
 23 18  1  0
 23 54  1  0
 24 25  1  0
 24 55  1  0
 24 56  1  0
 25 26  1  0
 25 40  1  0
 26 27  2  0
 27 28  1  0
 27 32  1  0
 28 29  2  0
 29 17  1  0
 29 30  1  0
 30 31  2  0
 30 57  1  0
 31 26  1  0
 31 58  1  0
 32 34  1  0
 32 35  1  0
 32 36  1  0
 33  3  1  0
 33 59  1  0
 33 60  1  0
 37 38  1  0
 37 39  2  0
 38 61  1  0
 40 62  1  0
 40 63  1  0
 40 64  1  0
M  END
> <Name>
CHEMBL1209109

> <Clean Energy>
82.724403

> <chembl_id>
CHEMBL1209109

> <chembl_pref_name>
None

> <efficacy>
0

> <Forcefield>
MMFF

> <ForcefieldBase>
MMFF

> <ForcefieldFFML>
<?xml version="1.0" encoding="UTF-8"?>
<!DOCTYPE ffml SYSTEM "Ffml.dtd">
<ffml version="1.0">
<forcefield name="MMFF" derivedFrom="MMFF" base="MMFF">
<atomTypes>
<atomType
name="O100"
element="O"
mass="16"
annotation=""/>
<atomType
name="C101"
element="C"
mass="12.011"
annotation=""/>
<atomType
name="N102"
element="N"
mass="14.007"
annotation=""/>
<atomType
name="Cl103"
element="Cl"
mass="35.453"
annotation=""/>
<atomType
name="F104"
element="F"
mass="18.998"
annotation=""/>
<atomType
name="H105"
element="H"
mass="1.008"
annotation=""/>
</atomTypes>
<parameters>
</parameters>
</forcefield>
</ffml>

> <Initial Potential Energy>
274.49685

> <Initial RMS Gradient>
30.64647

> <Minimization Criteria>
STEEPD> Minimization exiting with gradient tolerance ( 3.0000000) satisfied.

> <CHARMm Energy>
113.42812

> <Potential Energy>
113.42812

> <RMS Gradient>
0.03035

> <Bond Energy>
7.91003

> <Angle Energy>
19.88226

> <STRBend>
1.09867

> <Dihedral Energy>
26.80706

> <OOPLane>
0.4848

> <Van der Waals Energy>
63.51688

> <Electrostatic Energy>
-6.27159

> <Hydrogen Bond Energy>
0

> <Solvation Free Energy>
0

> <HasGasteigerCharges>
true

> <REMARK99>
REMARK  99  MacroMolecule created from Mol2 file
REMARK  99  CHEMBL1209109
REMARK  99  PROTEIN
REMARK  99  GASTEIGER
REMARK  99
REMARK  99

$$$$
CHEMBL5084529
  SciTegic05292516403D

 49 52  0  0  0  0            999 V2000
    0.5697    0.4395    1.9034 F   0  0
   -0.3708    0.2216    0.9364 C   0  0
    0.0530    0.9352   -0.1439 F   0  0
   -1.7144   -1.9033    0.9172 C   0  0
   -1.8940   -3.2564    0.6422 C   0  0
   -0.8534   -3.9847    0.0720 C   0  0
    0.3649   -3.3662   -0.2227 C   0  0
    0.5844   -2.0059    0.0638 C   0  0
   -0.4887   -1.2598    0.6279 C   0  0
   -1.5158    0.8115    1.3697 F   0  0
    1.9015   -1.3586   -0.3587 C   0  0
    3.1009   -2.1603   -0.1088 N   0  0
    4.2499   -1.9561   -0.8652 C   0  0
    5.5247   -2.6646   -0.4882 C   0  0
    4.2671   -1.1893   -1.8245 O   0  0
    5.5679   -3.7207    0.4522 C   0  0
    6.7815   -4.3554    0.7832 C   0  0
    6.7223   -2.2516   -1.1227 C   0  0
    7.9001   -2.8928   -0.7837 C   0  0
    7.9330   -3.9217    0.1555 C   0  0
    9.2650   -4.3488    0.2704 N   0  0
   10.0734   -3.5962   -0.6129 C   0  0
    9.2014   -2.6937   -1.2559 N   0  0
   11.2760   -3.6910   -0.8037 O   0  0
    9.7607   -5.4232    1.0936 C   0  0
    9.6077   -6.7815    0.4455 C   0  0
   10.3045   -7.0924   -0.7326 C   0  0
   10.1411   -8.3330   -1.3484 C   0  0
    9.2850   -9.2799   -0.7913 C   0  0
    8.6038   -8.9944    0.3896 C   0  0
    8.7673   -7.7535    1.0078 C   0  0
   -2.5430   -1.3424    1.3517 H   0  0
   -2.8466   -3.7362    0.8604 H   0  0
   -1.0034   -5.0372   -0.1625 H   0  0
    1.1455   -3.9544   -0.7031 H   0  0
    1.8376   -1.1116   -1.4246 H   0  0
    2.0698   -0.4265    0.1883 H   0  0
    3.1214   -2.7138    0.7330 H   0  0
    4.6628   -4.0823    0.9303 H   0  0
    6.7960   -5.1652    1.5029 H   0  0
    6.7173   -1.4511   -1.8563 H   0  0
    9.5222   -2.0448   -1.9583 H   0  0
   10.8270   -5.2569    1.2908 H   0  0
    9.2527   -5.3868    2.0642 H   0  0
   10.9779   -6.3643   -1.1820 H   0  0
   10.6853   -8.5606   -2.2620 H   0  0
    9.1541  -10.2428   -1.2766 H   0  0
    7.9421   -9.7379    0.8269 H   0  0
    8.2234   -7.5487    1.9267 H   0  0
  2  1  1  0
  2 10  1  0
  3  2  1  0
  4  5  2  0
  4 32  1  0
  5  6  1  0
  5 33  1  0
  6  7  2  0
  6 34  1  0
  7  8  1  0
  7 35  1  0
  8  9  2  0
  8 11  1  0
  9  2  1  0
  9  4  1  0
 11 12  1  0
 11 36  1  0
 11 37  1  0
 12 13  1  0
 12 38  1  0
 13 14  1  0
 13 15  2  0
 14 16  2  0
 16 17  1  0
 16 39  1  0
 17 20  2  0
 17 40  1  0
 18 14  1  0
 18 41  1  0
 19 18  2  0
 19 20  1  0
 20 21  1  0
 21 22  1  0
 21 25  1  0
 22 23  1  0
 22 24  2  0
 23 19  1  0
 23 42  1  0
 25 26  1  0
 25 43  1  0
 25 44  1  0
 26 27  2  0
 27 28  1  0
 27 45  1  0
 28 29  2  0
 28 46  1  0
 29 30  1  0
 29 47  1  0
 30 31  2  0
 30 48  1  0
 31 26  1  0
 31 49  1  0
M  END
> <Name>
CHEMBL5084529

> <Clean Energy>
47.586201

> <chembl_id>
CHEMBL5084529

> <chembl_pref_name>
None

> <efficacy>
0.177587844

> <Forcefield>
MMFF

> <ForcefieldBase>
MMFF

> <ForcefieldFFML>
<?xml version="1.0" encoding="UTF-8"?>
<!DOCTYPE ffml SYSTEM "Ffml.dtd">
<ffml version="1.0">
<forcefield name="MMFF" derivedFrom="MMFF" base="MMFF">
<atomTypes>
<atomType
name="F100"
element="F"
mass="18.998"
annotation=""/>
<atomType
name="C101"
element="C"
mass="12.011"
annotation=""/>
<atomType
name="N102"
element="N"
mass="14.007"
annotation=""/>
<atomType
name="O103"
element="O"
mass="16"
annotation=""/>
<atomType
name="H104"
element="H"
mass="1.008"
annotation=""/>
</atomTypes>
<parameters>
</parameters>
</forcefield>
</ffml>

> <Initial Potential Energy>
369.0642

> <Initial RMS Gradient>
197.45801

> <Minimization Criteria>
STEEPD> Minimization exiting with gradient tolerance ( 3.0000000) satisfied.

> <CHARMm Energy>
11.88538

> <Potential Energy>
11.88538

> <RMS Gradient>
0.09332

> <Bond Energy>
9.55773

> <Angle Energy>
28.51634

> <STRBend>
-1.63602

> <Dihedral Energy>
-0.95199

> <OOPLane>
0.20978

> <Van der Waals Energy>
52.33845

> <Electrostatic Energy>
-76.14891

> <Hydrogen Bond Energy>
0

> <Solvation Free Energy>
0

> <HasGasteigerCharges>
true

> <REMARK99>
REMARK  99  MacroMolecule created from Mol2 file
REMARK  99  CHEMBL5084529
REMARK  99  PROTEIN
REMARK  99  GASTEIGER
REMARK  99
REMARK  99

$$$$
CHEMBL2204696
  SciTegic05292516403D

 54 56  0  0  0  0            999 V2000
   30.4219   -8.8364   -0.2993 C   0  0
   29.5002  -10.0020    0.1449 C   0  0
   31.4690   -8.5199    0.2523 O   0  0
   29.9751   -8.1825   -1.4027 O   0  0
   28.3425   -9.8939   -0.7119 O   0  0
   27.2663  -10.7280   -0.6776 C   0  0
   26.2637  -10.3941   -1.5956 C   0  0
   25.0902  -11.1483   -1.6955 C   0  0
   24.8962  -12.2633   -0.8756 C   0  0
   25.8952  -12.5961    0.0447 C   0  0
   27.0707  -11.8345    0.1412 C   0  0
   23.6172  -13.0608   -0.9565 C   0  0
   22.4929  -12.4016   -0.1606 C   0  0
   21.2860  -13.1544   -0.3372 O   0  0
   20.1395  -12.4968    0.0138 C   0  0
   20.0744  -11.4004    0.8779 C   0  0
   18.8486  -10.7793    1.1179 C   0  0
   17.6846  -11.2445    0.4967 C   0  0
   17.7457  -12.3763   -0.3190 C   0  0
   18.9708  -13.0010   -0.5578 C   0  0
   16.4617  -10.5885    0.6983 N   0  0
   16.3990   -9.5998   -0.0664 N   0  0
   15.1849   -8.9182    0.1072 C   0  0
   15.2011   -7.5985    0.5699 C   0  0
   14.0115   -6.8877    0.7237 C   0  0
   12.7962   -7.4925    0.4061 C   0  0
   12.7674   -8.8028   -0.0691 C   0  0
   13.9590   -9.5108   -0.2226 C   0  0
   30.3066  -11.2789   -0.1069 C   0  0
   29.1648   -9.7444    1.6160 C   0  0
   29.1197   -8.5781   -1.6816 H   0  0
   26.3917   -9.5329   -2.2478 H   0  0
   24.3287  -10.8542   -2.4157 H   0  0
   25.7740  -13.4579    0.6993 H   0  0
   27.7964  -12.1508    0.8783 H   0  0
   23.3182  -13.1748   -2.0066 H   0  0
   23.7793  -14.0845   -0.5957 H   0  0
   22.7568  -12.3819    0.9041 H   0  0
   22.3586  -11.3728   -0.5208 H   0  0
   20.9589  -11.0043    1.3690 H   0  0
   18.7801   -9.9206    1.7813 H   0  0
   16.8407  -12.7560   -0.7849 H   0  0
   19.0038  -13.8744   -1.2054 H   0  0
   16.1507   -7.1288    0.8126 H   0  0
   14.0309   -5.8644    1.0893 H   0  0
   11.8688   -6.9402    0.5267 H   0  0
   11.8186   -9.2701   -0.3207 H   0  0
   13.9418  -10.5301   -0.5988 H   0  0
   29.8094  -12.1764    0.2650 H   0  0
   31.2892  -11.2352    0.3765 H   0  0
   30.4665  -11.4284   -1.1812 H   0  0
   28.5638  -10.5404    2.0596 H   0  0
   28.5876   -8.8184    1.7226 H   0  0
   30.0708   -9.6480    2.2249 H   0  0
  1  2  1  0
  1  3  2  0
  1  4  1  0
  2  5  1  0
  2 29  1  0
  2 30  1  0
  4 31  1  0
  5  6  1  0
  6  7  1  0
  6 11  2  0
  7  8  2  0
  7 32  1  0
  8  9  1  0
  8 33  1  0
  9 10  2  0
  9 12  1  0
 10 11  1  0
 10 34  1  0
 11 35  1  0
 12 13  1  0
 12 36  1  0
 12 37  1  0
 13 14  1  0
 13 38  1  0
 13 39  1  0
 14 15  1  0
 15 16  1  0
 15 20  2  0
 16 17  2  0
 16 40  1  0
 17 18  1  0
 17 41  1  0
 18 19  2  0
 18 21  1  0
 19 20  1  0
 19 42  1  0
 20 43  1  0
 21 22  2  0
 22 23  1  0
 23 24  1  0
 23 28  2  0
 24 25  2  0
 24 44  1  0
 25 26  1  0
 25 45  1  0
 26 27  2  0
 26 46  1  0
 27 28  1  0
 27 47  1  0
 28 48  1  0
 29 49  1  0
 29 50  1  0
 29 51  1  0
 30 52  1  0
 30 53  1  0
 30 54  1  0
M  END
> <Name>
CHEMBL2204696

> <Clean Energy>
19.4667

> <chembl_id>
CHEMBL2204696

> <chembl_pref_name>
None

> <efficacy>
0.188949035

> <Forcefield>
MMFF

> <ForcefieldBase>
MMFF

> <ForcefieldFFML>
<?xml version="1.0" encoding="UTF-8"?>
<!DOCTYPE ffml SYSTEM "Ffml.dtd">
<ffml version="1.0">
<forcefield name="MMFF" derivedFrom="MMFF" base="MMFF">
<atomTypes>
<atomType
name="C100"
element="C"
mass="12.011"
annotation=""/>
<atomType
name="O101"
element="O"
mass="16"
annotation=""/>
<atomType
name="N102"
element="N"
mass="14.007"
annotation=""/>
<atomType
name="H103"
element="H"
mass="1.008"
annotation=""/>
</atomTypes>
<parameters>
</parameters>
</forcefield>
</ffml>

> <Initial Potential Energy>
160.47443

> <Initial RMS Gradient>
30.39111

> <Minimization Criteria>
CONJUG> Minimization exiting with gradient tolerance ( 0.0100000) satisfied.

> <CHARMm Energy>
86.73095

> <Potential Energy>
86.73095

> <RMS Gradient>
0.01

> <Bond Energy>
5.86468

> <Angle Energy>
21.02468

> <STRBend>
0.18372

> <Dihedral Energy>
8.96744

> <OOPLane>
0.03053

> <Van der Waals Energy>
64.07477

> <Electrostatic Energy>
-13.41487

> <Hydrogen Bond Energy>
0

> <Solvation Free Energy>
0

> <HasGasteigerCharges>
true

> <REMARK99>
REMARK  99  MacroMolecule created from Mol2 file
REMARK  99  CHEMBL2204696
REMARK  99  PROTEIN
REMARK  99  GASTEIGER
REMARK  99
REMARK  99

$$$$
CHEMBL1956359
  SciTegic05292516403D

 32 33  0  0  0  0            999 V2000
   13.6126    3.0440   -0.0368 C   0  0
   13.5224    2.1896   -1.1337 C   0  0
   14.6302    1.4342   -1.5117 C   0  0
   15.8230    1.5402   -0.7960 C   0  0
   15.9327    2.4012    0.2967 C   0  0
   14.8103    3.1443    0.6756 C   0  0
   17.0241    2.5951    1.0936 O   0  0
   18.3220    2.2166    0.6118 C   0  0  2  0  0  0
   18.6870    0.8535    1.2161 C   0  0
   19.9271    0.2352    0.6164 C   0  0
   21.1382    0.2505    1.3221 C   0  0
   22.2952   -0.2794    0.7508 C   0  0
   22.2527   -0.8337   -0.5265 C   0  0
   21.0524   -0.8634   -1.2326 C   0  0
   19.8940   -0.3327   -0.6642 C   0  0
   19.3037    3.2886    1.1084 C   0  0
   20.4924    3.2956    0.4520 O   0  0
   19.0757    4.0957    1.9997 O   0  0
   16.8494    0.7716   -1.1846 F   0  0
   12.7507    3.6333    0.2681 H   0  0
   12.5891    2.1102   -1.6867 H   0  0
   14.5719    0.7558   -2.3573 H   0  0
   14.8720    3.8133    1.5321 H   0  0
   18.3630    2.2498   -0.4830 H   0  0
   18.8069    0.9494    2.3039 H   0  0
   17.8551    0.1476    1.0942 H   0  0
   21.1936    0.6830    2.3202 H   0  0
   23.2317   -0.2629    1.3045 H   0  0
   23.1551   -1.2514   -0.9670 H   0  0
   21.0172   -1.3078   -2.2244 H   0  0
   18.9644   -0.3767   -1.2281 H   0  0
   20.6022    2.5822   -0.2087 H   0  0
  1  2  2  0
  1 20  1  0
  2  3  1  0
  2 21  1  0
  3  4  2  0
  3 22  1  0
  4  5  1  0
  4 19  1  0
  5  6  2  0
  5  7  1  0
  6  1  1  0
  6 23  1  0
  7  8  1  0
  8  9  1  0
  8 16  1  0
  8 24  1  0
  9 10  1  0
  9 25  1  0
  9 26  1  0
 10 11  2  0
 11 12  1  0
 11 27  1  0
 12 13  2  0
 12 28  1  0
 13 14  1  0
 13 29  1  0
 14 15  2  0
 14 30  1  0
 15 10  1  0
 15 31  1  0
 16 17  1  0
 16 18  2  0
 17 32  1  0
M  END
> <Name>
CHEMBL1956359

> <Clean Energy>
15.3218

> <chembl_id>
CHEMBL1956359

> <chembl_pref_name>
None

> <efficacy>
0.24691358

> <Forcefield>
MMFF

> <ForcefieldBase>
MMFF

> <ForcefieldFFML>
<?xml version="1.0" encoding="UTF-8"?>
<!DOCTYPE ffml SYSTEM "Ffml.dtd">
<ffml version="1.0">
<forcefield name="MMFF" derivedFrom="MMFF" base="MMFF">
<atomTypes>
<atomType
name="C100"
element="C"
mass="12.011"
annotation=""/>
<atomType
name="O101"
element="O"
mass="16"
annotation=""/>
<atomType
name="F102"
element="F"
mass="18.998"
annotation=""/>
<atomType
name="H103"
element="H"
mass="1.008"
annotation=""/>
</atomTypes>
<parameters>
</parameters>
</forcefield>
</ffml>

> <Initial Potential Energy>
116.99883

> <Initial RMS Gradient>
32.13226

> <Minimization Criteria>
CONJUG> Minimization exiting with gradient tolerance ( 0.0100000) satisfied.

> <CHARMm Energy>
62.17795

> <Potential Energy>
62.17795

> <RMS Gradient>
0.00802

> <Bond Energy>
3.44426

> <Angle Energy>
10.69914

> <STRBend>
0.21113

> <Dihedral Energy>
-0.44036

> <OOPLane>
0.01965

> <Van der Waals Energy>
35.91038

> <Electrostatic Energy>
12.33374

> <Hydrogen Bond Energy>
0

> <Solvation Free Energy>
0

> <HasGasteigerCharges>
true

> <REMARK99>
REMARK  99  MacroMolecule created from Mol2 file
REMARK  99  CHEMBL1956359
REMARK  99  PROTEIN
REMARK  99  GASTEIGER
REMARK  99
REMARK  99

$$$$
CHEMBL1079669
  SciTegic05292516403D

 65 68  0  0  0  0            999 V2000
    5.4651   -9.0726   -0.6745 C   0  0
    4.8269   -9.5181   -1.8366 C   0  0
    3.5850  -10.1500   -1.7547 C   0  0
    2.9717  -10.3553   -0.5174 C   0  0
    3.5859   -9.8768    0.6391 C   0  0
    4.8259   -9.2414    0.5606 C   0  0
    6.8609   -8.4995   -0.7221 C   0  0
    7.9099   -9.6151   -0.6887 C   0  0  1  0  0  0
    9.2868   -8.9729   -0.6567 C   0  0
    9.8663   -9.0575    0.5728 O   0  0
    9.8323   -8.4253   -1.6039 O   0  0
    1.7792  -11.0274   -0.5657 O   0  0
    1.3444  -11.6156    0.6646 C   0  0
    0.0780  -12.3686    0.4002 C   0  0
    0.0676  -14.0858    0.3119 S   0  0
   -1.6555  -14.0818    0.2252 C   0  0
   -2.1002  -12.7659    0.1813 C   0  0
   -1.1073  -11.8034    0.3153 N   0  0
   -3.4932  -12.3485    0.0752 C   0  0
   -4.3747  -12.9360   -0.8406 C   0  0
   -5.2892  -10.8900    0.8055 C   0  0
   -3.9600  -11.3102    0.8883 C   0  0
   -2.3910  -15.3513    0.2730 C   0  0
   -2.2019  -16.3455   -0.6949 C   0  0
   -2.9392  -17.5365   -0.6489 C   0  0
   -3.8788  -17.7593    0.3692 C   0  0
   -4.0659  -16.7652    1.3399 C   0  0
   -3.3280  -15.5774    1.2924 C   0  0
   -6.1719  -11.4942   -0.0907 C   0  0
   -5.7085  -12.5145   -0.9206 C   0  0
   -7.4435  -10.9934   -0.0647 O   0  0
   -8.4125  -11.6620   -0.8622 C   0  0
   -4.7084  -19.0201    0.4118 C   0  0
   -5.9983  -18.8050    0.0268 F   0  0
   -4.7846  -19.5695    1.6581 F   0  0
   -4.2426  -20.0122   -0.3987 F   0  0
    7.7639  -10.3833    0.5310 O   0  0
    7.9852  -11.7801    0.3095 C   0  0
    7.7981  -12.5025    1.6281 C   0  0
    5.2910   -9.3971   -2.8117 H   0  0
    3.0953  -10.5031   -2.6595 H   0  0
    3.1299   -9.9769    1.6181 H   0  0
    5.3037   -8.9046    1.4784 H   0  0
    6.9765   -7.8861   -1.6243 H   0  0
    6.9965   -7.8179    0.1285 H   0  0
    7.8369  -10.2652   -1.5690 H   0  0
    9.2168   -9.5269    1.1541 H   0  0
    2.1202  -12.2762    1.0706 H   0  0
    1.1146  -10.8306    1.3952 H   0  0
   -4.0360  -13.7201   -1.5135 H   0  0
   -5.6349  -10.0822    1.4444 H   0  0
   -3.2898  -10.8199    1.5913 H   0  0
   -1.4909  -16.1974   -1.5051 H   0  0
   -2.7736  -18.2867   -1.4210 H   0  0
   -4.7924  -16.9089    2.1393 H   0  0
   -3.4956  -14.8215    2.0584 H   0  0
   -6.3496  -12.9957   -1.6507 H   0  0
   -9.3805  -11.1850   -0.6812 H   0  0
   -8.5013  -12.7154   -0.5762 H   0  0
   -8.1835  -11.5583   -1.9278 H   0  0
    7.2635  -12.1564   -0.4238 H   0  0
    9.0016  -11.9374   -0.0666 H   0  0
    7.9554  -13.5782    1.5096 H   0  0
    6.7891  -12.3335    2.0190 H   0  0
    8.4983  -12.1218    2.3790 H   0  0
  1  2  2  0
  1  7  1  0
  2  3  1  0
  2 40  1  0
  3  4  2  0
  3 41  1  0
  4  5  1  0
  4 12  1  0
  5  6  2  0
  5 42  1  0
  6  1  1  0
  6 43  1  0
  7  8  1  0
  7 44  1  0
  7 45  1  0
  8  9  1  0
  8 37  1  0
  8 46  1  0
  9 10  1  0
  9 11  2  0
 10 47  1  0
 12 13  1  0
 13 14  1  0
 13 48  1  0
 13 49  1  0
 14 15  1  0
 15 16  1  0
 16 17  2  0
 16 23  1  0
 17 18  1  0
 17 19  1  0
 18 14  2  0
 19 20  2  0
 20 30  1  0
 20 50  1  0
 21 22  2  0
 21 51  1  0
 22 19  1  0
 22 52  1  0
 23 24  2  0
 24 25  1  0
 24 53  1  0
 25 26  2  0
 25 54  1  0
 26 27  1  0
 26 33  1  0
 27 28  2  0
 27 55  1  0
 28 23  1  0
 28 56  1  0
 29 21  1  0
 29 30  2  0
 29 31  1  0
 30 57  1  0
 31 32  1  0
 32 58  1  0
 32 59  1  0
 32 60  1  0
 33 34  1  0
 33 35  1  0
 33 36  1  0
 37 38  1  0
 38 39  1  0
 38 61  1  0
 38 62  1  0
 39 63  1  0
 39 64  1  0
 39 65  1  0
M  END
> <Name>
CHEMBL1079669

> <Clean Energy>
62.709

> <chembl_id>
CHEMBL1079669

> <chembl_pref_name>
None

> <efficacy>
0.23

> <Forcefield>
MMFF

> <ForcefieldBase>
MMFF

> <ForcefieldFFML>
<?xml version="1.0" encoding="UTF-8"?>
<!DOCTYPE ffml SYSTEM "Ffml.dtd">
<ffml version="1.0">
<forcefield name="MMFF" derivedFrom="MMFF" base="MMFF">
<atomTypes>
<atomType
name="C100"
element="C"
mass="12.011"
annotation=""/>
<atomType
name="O101"
element="O"
mass="16"
annotation=""/>
<atomType
name="S102"
element="S"
mass="32.066"
annotation=""/>
<atomType
name="N103"
element="N"
mass="14.007"
annotation=""/>
<atomType
name="F104"
element="F"
mass="18.998"
annotation=""/>
<atomType
name="H105"
element="H"
mass="1.008"
annotation=""/>
</atomTypes>
<parameters>
</parameters>
</forcefield>
</ffml>

> <Initial Potential Energy>
1281.54342

> <Initial RMS Gradient>
758.61143

> <Minimization Criteria>
STEEPD> Minimization exiting with gradient tolerance ( 3.0000000) satisfied.

> <CHARMm Energy>
131.63097

> <Potential Energy>
131.63097

> <RMS Gradient>
0.10948

> <Bond Energy>
6.76852

> <Angle Energy>
17.17673

> <STRBend>
0.28319

> <Dihedral Energy>
11.41895

> <OOPLane>
0.15737

> <Van der Waals Energy>
67.63214

> <Electrostatic Energy>
28.19407

> <Hydrogen Bond Energy>
0

> <Solvation Free Energy>
0

> <HasGasteigerCharges>
true

> <REMARK99>
REMARK  99  MacroMolecule created from Mol2 file
REMARK  99  CHEMBL1079669
REMARK  99  PROTEIN
REMARK  99  GASTEIGER
REMARK  99
REMARK  99

$$$$
CHEMBL5199782
  SciTegic05292516403D

 54 55  0  0  0  0            999 V2000
   -4.4279   -1.6259    1.6815 O   0  0
   -4.1389   -0.6642    0.9726 C   0  0
   -2.9025    0.1047    1.2360 C   0  0
   -1.7606   -0.5831    1.6528 C   0  0
   -0.5781    0.1182    1.8874 C   0  0
   -0.5318    1.5108    1.7210 C   0  0
    0.7542    2.2590    1.9378 C   0  0
    1.6867    1.8117    0.9543 O   0  0
    2.7881    2.7201    0.8289 C   0  0
    3.8177    2.1326   -0.1507 C   0  0  2  0  0  0
    4.2032    0.7876    0.3092 N   0  0
    4.9927   -0.0821   -0.3634 C   0  0
    5.7645    0.2631   -1.2470 O   0  0
    4.8102   -1.3222    0.1277 O   0  0
    5.5398   -2.4546   -0.4106 C   0  0
    5.1977   -2.6820   -1.8869 C   0  0
    7.0485   -2.2962   -0.1904 C   0  0
    5.0469   -3.6604    0.4024 C   0  0
    4.9292    3.1815   -0.3040 C   0  0
    6.1526    2.7101   -0.6206 O   0  0
    4.7390    4.3925   -0.2490 O   0  0
   -1.6923    2.1945    1.3335 C   0  0
   -2.8768    1.4971    1.0987 C   0  0
   -5.0609   -0.2721   -0.1225 C   0  0
   -6.4354   -0.4005    0.0925 C   0  0
   -7.3325   -0.0263   -0.9065 C   0  0
   -6.8627    0.4599   -2.1268 C   0  0
   -5.4906    0.5671   -2.3529 C   0  0
   -4.5881    0.1956   -1.3544 C   0  0
   -1.7879   -1.6628    1.7830 H   0  0
    0.3144   -0.4258    2.1891 H   0  0
    0.5885    3.3392    1.8462 H   0  0
    1.1482    2.0527    2.9394 H   0  0
    2.4106    3.6830    0.4644 H   0  0
    3.2448    2.8704    1.8158 H   0  0
    3.3620    1.9927   -1.1388 H   0  0
    3.5508    0.3367    0.9416 H   0  0
    5.6219   -3.6225   -2.2544 H   0  0
    5.5814   -1.8786   -2.5231 H   0  0
    4.1123   -2.7071   -2.0353 H   0  0
    7.5869   -3.2148   -0.4477 H   0  0
    7.2636   -2.0466    0.8550 H   0  0
    7.4675   -1.4887   -0.7990 H   0  0
    5.5323   -4.5896    0.0871 H   0  0
    3.9626   -3.7831    0.2998 H   0  0
    5.2410   -3.5143    1.4712 H   0  0
    6.1632    1.7546   -0.8633 H   0  0
   -1.6812    3.2752    1.2075 H   0  0
   -3.7703    2.0510    0.8185 H   0  0
   -6.8054   -0.7909    1.0382 H   0  0
   -8.4009   -0.1214   -0.7342 H   0  0
   -7.5724    0.7413   -2.9036 H   0  0
   -5.1244    0.9351   -3.3083 H   0  0
   -3.5216    0.2671   -1.5536 H   0  0
  2  1  2  0
  2  3  1  0
  3  4  1  0
  4  5  2  0
  4 30  1  0
  5  6  1  0
  5 31  1  0
  6  7  1  0
  6 22  2  0
  7  8  1  0
  7 32  1  0
  7 33  1  0
  8  9  1  0
  9 10  1  0
  9 34  1  0
  9 35  1  0
 10 11  1  0
 10 19  1  0
 10 36  1  0
 11 12  1  0
 11 37  1  0
 12 13  2  0
 12 14  1  0
 14 15  1  0
 15 16  1  0
 15 17  1  0
 15 18  1  0
 16 38  1  0
 16 39  1  0
 16 40  1  0
 17 41  1  0
 17 42  1  0
 17 43  1  0
 18 44  1  0
 18 45  1  0
 18 46  1  0
 19 20  1  0
 19 21  2  0
 20 47  1  0
 22 23  1  0
 22 48  1  0
 23  3  2  0
 23 49  1  0
 24  2  1  0
 24 29  2  0
 25 24  1  0
 25 50  1  0
 26 25  2  0
 26 51  1  0
 27 26  1  0
 27 52  1  0
 28 27  2  0
 28 53  1  0
 29 28  1  0
 29 54  1  0
M  END
> <Name>
CHEMBL5199782

> <Clean Energy>
13.7118

> <chembl_id>
CHEMBL5199782

> <chembl_pref_name>
None

> <efficacy>
0.15

> <Forcefield>
MMFF

> <ForcefieldBase>
MMFF

> <ForcefieldFFML>
<?xml version="1.0" encoding="UTF-8"?>
<!DOCTYPE ffml SYSTEM "Ffml.dtd">
<ffml version="1.0">
<forcefield name="MMFF" derivedFrom="MMFF" base="MMFF">
<atomTypes>
<atomType
name="O100"
element="O"
mass="16"
annotation=""/>
<atomType
name="C101"
element="C"
mass="12.011"
annotation=""/>
<atomType
name="N102"
element="N"
mass="14.007"
annotation=""/>
<atomType
name="H103"
element="H"
mass="1.008"
annotation=""/>
</atomTypes>
<parameters>
</parameters>
</forcefield>
</ffml>

> <Initial Potential Energy>
147.79212

> <Initial RMS Gradient>
31.99086

> <Minimization Criteria>
STEEPD> Minimization exiting with gradient tolerance ( 3.0000000) satisfied.

> <CHARMm Energy>
31.33788

> <Potential Energy>
31.33788

> <RMS Gradient>
0.10903

> <Bond Energy>
5.60704

> <Angle Energy>
14.51824

> <STRBend>
0.99037

> <Dihedral Energy>
11.94824

> <OOPLane>
0.74056

> <Van der Waals Energy>
55.58377

> <Electrostatic Energy>
-58.05035

> <Hydrogen Bond Energy>
0

> <Solvation Free Energy>
0

> <HasGasteigerCharges>
true

> <REMARK99>
REMARK  99  MacroMolecule created from Mol2 file
REMARK  99  CHEMBL5199782
REMARK  99  PROTEIN
REMARK  99  GASTEIGER
REMARK  99
REMARK  99

$$$$
CHEMBL1946756
  SciTegic05292516403D

 59 63  0  0  0  0            999 V2000
    6.7669  -23.7708   -0.4901 C   0  0
    6.8055  -25.1623   -0.2905 C   0  0
    7.9354  -25.7593    0.2779 C   0  0
    7.8561  -22.9593   -0.1450 C   0  0
    8.9739  -23.5666    0.4011 C   0  0
    8.9999  -24.9489    0.6112 C   0  0
   10.2387  -25.2875    1.1677 N   0  0
   11.0191  -24.1173    1.2953 C   0  0
   10.2309  -23.0596    0.7851 N   0  0
   12.1364  -24.0833    1.7894 O   0  0
   10.6195  -21.7374    0.6417 C   0  0
   10.6726  -26.5977    1.5758 C   0  0
   11.5158  -27.2785    0.5208 C   0  0
   10.9249  -28.0969   -0.4513 C   0  0
   11.7062  -28.7006   -1.4390 C   0  0
   13.0858  -28.4978   -1.4591 C   0  0
   13.6944  -27.6958   -0.4867 C   0  0
   12.9059  -27.0691    0.4825 C   0  0
   15.0464  -27.4804   -0.5690 O   0  0
   15.7778  -27.6932    0.6542 C   0  0  1  0  0  0
   16.7774  -28.8161    0.4308 C   0  0
   16.8259  -29.2829   -0.8445 O   0  0
   17.4991  -29.2774    1.3066 O   0  0
   16.5151  -26.4094    0.9992 C   0  0
   14.0190  -29.2707   -2.6913 Cl  0  0
   10.4718  -19.5636    0.4556 O   0  0
    9.7405  -20.7202    0.5894 N   0  0
   11.7881  -19.8667    0.3704 C   0  0
   11.9510  -21.2357    0.4795 C   0  0
   13.2547  -21.7462    0.3470 C   0  0
   14.3198  -20.8574    0.1472 C   0  0
   14.1090  -19.4769    0.0673 C   0  0
   12.8177  -18.9483    0.1817 C   0  0
   15.0885  -18.5386   -0.1350 O   0  0
   16.4127  -19.0450   -0.2986 C   0  0
    5.8217  -26.0491   -0.6187 O   0  0
    4.5781  -25.5252   -1.0704 C   0  0
    3.7160  -26.5466   -1.2821 F   0  0
    4.7219  -24.8518   -2.2324 F   0  0
    4.0214  -24.7062   -0.1477 F   0  0
    5.8967  -23.2742   -0.9191 H   0  0
    7.9630  -26.8302    0.4368 H   0  0
    7.7871  -21.8892   -0.3199 H   0  0
   11.2684  -26.4947    2.4917 H   0  0
    9.8106  -27.2191    1.8434 H   0  0
    9.8507  -28.2679   -0.4534 H   0  0
   11.2315  -29.3259   -2.1910 H   0  0
   13.3612  -26.3946    1.2055 H   0  0
   15.1277  -28.0106    1.4787 H   0  0
   16.1449  -28.7946   -1.3715 H   0  0
   17.1063  -26.5216    1.9135 H   0  0
   15.8103  -25.5829    1.1367 H   0  0
   17.1934  -26.1179    0.1891 H   0  0
   13.4534  -22.8127    0.3715 H   0  0
   15.3125  -21.2889    0.0533 H   0  0
   12.6278  -17.8790    0.1150 H   0  0
   17.0748  -18.1893   -0.4631 H   0  0
   16.4842  -19.6917   -1.1794 H   0  0
   16.7548  -19.5575    0.6067 H   0  0
  1  2  2  0
  1 41  1  0
  2  3  1  0
  2 36  1  0
  3  6  2  0
  3 42  1  0
  4  1  1  0
  4 43  1  0
  5  4  2  0
  5  6  1  0
  6  7  1  0
  7  8  1  0
  7 12  1  0
  8  9  1  0
  8 10  2  0
  9  5  1  0
  9 11  1  0
 11 29  1  0
 12 13  1  0
 12 44  1  0
 12 45  1  0
 13 14  2  0
 14 15  1  0
 14 46  1  0
 15 16  2  0
 15 47  1  0
 16 17  1  0
 16 25  1  0
 17 18  2  0
 17 19  1  0
 18 13  1  0
 18 48  1  0
 19 20  1  0
 20 21  1  0
 20 24  1  0
 20 49  1  0
 21 22  1  0
 21 23  2  0
 22 50  1  0
 24 51  1  0
 24 52  1  0
 24 53  1  0
 26 27  1  0
 27 11  2  0
 28 26  1  0
 28 29  2  0
 29 30  1  0
 30 31  2  0
 30 54  1  0
 31 32  1  0
 31 55  1  0
 32 33  2  0
 32 34  1  0
 33 28  1  0
 33 56  1  0
 34 35  1  0
 35 57  1  0
 35 58  1  0
 35 59  1  0
 36 37  1  0
 37 38  1  0
 37 39  1  0
 37 40  1  0
M  END
> <Name>
CHEMBL1946756

> <Clean Energy>
79.757004

> <chembl_id>
CHEMBL1946756

> <chembl_pref_name>
None

> <efficacy>
0.39

> <Forcefield>
MMFF

> <ForcefieldBase>
MMFF

> <ForcefieldFFML>
<?xml version="1.0" encoding="UTF-8"?>
<!DOCTYPE ffml SYSTEM "Ffml.dtd">
<ffml version="1.0">
<forcefield name="MMFF" derivedFrom="MMFF" base="MMFF">
<atomTypes>
<atomType
name="C100"
element="C"
mass="12.011"
annotation=""/>
<atomType
name="N101"
element="N"
mass="14.007"
annotation=""/>
<atomType
name="O102"
element="O"
mass="16"
annotation=""/>
<atomType
name="Cl103"
element="Cl"
mass="35.453"
annotation=""/>
<atomType
name="F104"
element="F"
mass="18.998"
annotation=""/>
<atomType
name="H105"
element="H"
mass="1.008"
annotation=""/>
</atomTypes>
<parameters>
</parameters>
</forcefield>
</ffml>

> <Initial Potential Energy>
203.63625

> <Initial RMS Gradient>
33.1737

> <Minimization Criteria>
CONJUG> Minimization exiting with gradient tolerance ( 0.0100000) satisfied.

> <CHARMm Energy>
49.72942

> <Potential Energy>
49.72942

> <RMS Gradient>
0.00897

> <Bond Energy>
6.82192

> <Angle Energy>
50.34426

> <STRBend>
-2.49739

> <Dihedral Energy>
8.33385

> <OOPLane>
0.09401

> <Van der Waals Energy>
70.76462

> <Electrostatic Energy>
-84.13185

> <Hydrogen Bond Energy>
0

> <Solvation Free Energy>
0

> <HasGasteigerCharges>
true

> <REMARK99>
REMARK  99  MacroMolecule created from Mol2 file
REMARK  99  CHEMBL1946756
REMARK  99  PROTEIN
REMARK  99  GASTEIGER
REMARK  99
REMARK  99

$$$$
CHEMBL1801714
  SciTegic05292516403D

 61 66  0  0  0  0            999 V2000
    8.7422   -3.6413   -0.5236 C   0  0
    9.3084   -2.3470   -0.4240 C   0  0
    9.4972   -4.9013   -0.6160 C   0  0
   10.7473   -2.0387   -0.3648 C   0  0
   11.4198   -1.5643   -1.5149 C   0  0
   11.4363   -2.0806    0.8598 C   0  0
   12.7324   -1.0832   -1.4466 C   0  0
    7.3324   -3.7512   -0.5395 C   0  0
    8.4410   -1.2309   -0.3542 C   0  0
    6.4985   -2.6335   -0.4681 C   0  0
    7.0557   -1.3695   -0.3770 C   0  0
   13.3671   -1.0686   -0.2139 C   0  0
   12.7399   -1.6042    0.9179 C   0  0
   13.5990   -1.4511    2.1358 C   0  0
   14.9658   -1.1011    1.5274 C   0  0
   14.7115   -0.4835    0.1349 C   0  0  2  0  0  0
   14.8069    0.9757    0.1195 N   0  0
   14.3908    3.1692    0.1558 N   0  0
   16.0184    1.6145   -0.0820 C   0  0
   13.8532    1.9690    0.3037 C   0  0
   15.7219    2.9668   -0.0723 C   0  0
   18.2268    1.9456   -0.4358 C   0  0
   17.2325    1.0463   -0.2495 N   0  0
   16.7660    3.8849   -0.2702 C   0  0
   18.0454    3.3324   -0.4549 C   0  0
   12.4057    1.7540    0.6277 C   0  0
   16.5771    5.3712   -0.2763 C   0  0
   11.6780    3.0547    0.9840 C   0  0
   10.8481   -5.0349   -0.7944 N   0  0
   11.1980   -6.3258   -0.8376 N   0  0
   10.0625   -6.9923   -0.7019 N   0  0
    9.0002   -6.1319   -0.5707 N   0  0
   19.6087    1.3877   -0.6314 C   0  0
   10.2160    2.7961    1.3153 C   0  0
   10.8925   -1.5139   -2.4677 H   0  0
   10.9357   -2.4193    1.7652 H   0  0
   13.2152   -0.6750   -2.3309 H   0  0
    6.8692   -4.7340   -0.6119 H   0  0
    8.8527   -0.2254   -0.2723 H   0  0
    5.4195   -2.7550   -0.4836 H   0  0
    6.4282   -0.4853   -0.3189 H   0  0
   13.2293   -0.6361    2.7654 H   0  0
   13.6499   -2.3736    2.7213 H   0  0
   15.5572   -0.4635    2.1934 H   0  0
   15.5329   -2.0338    1.3968 H   0  0
   15.4544   -0.8629   -0.5782 H   0  0
   18.9002    3.9895   -0.6079 H   0  0
   11.9023    1.3084   -0.2349 H   0  0
   12.3175    1.0771    1.4804 H   0  0
   17.1450    5.8261    0.5415 H   0  0
   15.5237    5.6399   -0.1492 H   0  0
   16.9206    5.7914   -1.2269 H   0  0
   12.1622    3.5346    1.8432 H   0  0
   11.7345    3.7617    0.1473 H   0  0
   11.5655   -4.3326   -0.8979 H   0  0
   20.0003    1.6836   -1.6097 H   0  0
   19.5977    0.2939   -0.5851 H   0  0
   20.2788    1.7552    0.1520 H   0  0
    9.7128    3.7345    1.5680 H   0  0
   10.1210    2.1184    2.1697 H   0  0
    9.6940    2.3495    0.4630 H   0  0
  1  2  1  0
  2  4  1  0
  3  1  1  0
  3 29  1  0
  4  5  2  0
  5  7  1  0
  5 35  1  0
  6  4  1  0
  6 13  2  0
  6 36  1  0
  7 12  2  0
  7 37  1  0
  8  1  2  0
  8 10  1  0
  8 38  1  0
  9  2  2  0
  9 39  1  0
 10 11  2  0
 10 40  1  0
 11  9  1  0
 11 41  1  0
 12 13  1  0
 13 14  1  0
 14 15  1  0
 14 42  1  0
 14 43  1  0
 15 16  1  0
 15 44  1  0
 15 45  1  0
 16 12  1  0
 16 17  1  0
 16 46  1  0
 17 19  1  0
 18 20  2  0
 18 21  1  0
 19 21  2  0
 19 23  1  0
 20 17  1  0
 21 24  1  0
 22 33  1  0
 23 22  2  0
 24 25  2  0
 25 22  1  0
 25 47  1  0
 26 20  1  0
 26 48  1  0
 26 49  1  0
 27 24  1  0
 27 50  1  0
 27 51  1  0
 27 52  1  0
 28 26  1  0
 28 34  1  0
 28 53  1  0
 28 54  1  0
 29 30  1  0
 29 55  1  0
 30 31  2  0
 31 32  1  0
 32  3  2  0
 33 56  1  0
 33 57  1  0
 33 58  1  0
 34 59  1  0
 34 60  1  0
 34 61  1  0
M  END
> <Name>
CHEMBL1801714

> <Clean Energy>
93.028397

> <chembl_id>
CHEMBL1801714

> <chembl_pref_name>
None

> <efficacy>
0.260869565

> <Forcefield>
MMFF

> <ForcefieldBase>
MMFF

> <ForcefieldFFML>
<?xml version="1.0" encoding="UTF-8"?>
<!DOCTYPE ffml SYSTEM "Ffml.dtd">
<ffml version="1.0">
<forcefield name="MMFF" derivedFrom="MMFF" base="MMFF">
<atomTypes>
<atomType
name="C100"
element="C"
mass="12.011"
annotation=""/>
<atomType
name="N101"
element="N"
mass="14.007"
annotation=""/>
<atomType
name="H102"
element="H"
mass="1.008"
annotation=""/>
</atomTypes>
<parameters>
</parameters>
</forcefield>
</ffml>

> <Initial Potential Energy>
238.77779

> <Initial RMS Gradient>
37.44227

> <Minimization Criteria>
STEEPD> Minimization exiting with gradient tolerance ( 3.0000000) satisfied.

> <CHARMm Energy>
86.73553

> <Potential Energy>
86.73553

> <RMS Gradient>
0.01823

> <Bond Energy>
8.44655

> <Angle Energy>
16.75791

> <STRBend>
-0.54942

> <Dihedral Energy>
4.81385

> <OOPLane>
0.19434

> <Van der Waals Energy>
56.78507

> <Electrostatic Energy>
0.28724

> <Hydrogen Bond Energy>
0

> <Solvation Free Energy>
0

> <HasGasteigerCharges>
true

> <REMARK99>
REMARK  99  MacroMolecule created from Mol2 file
REMARK  99  CHEMBL1801714
REMARK  99  PROTEIN
REMARK  99  GASTEIGER
REMARK  99
REMARK  99

$$$$
CHEMBL2203301
  SciTegic05292516403D

 29 29  0  0  0  0            999 V2000
    9.7059  -25.3222    0.0510 C   0  0
    8.2526  -24.7677    0.0156 C   0  0
   10.0093  -26.5083    0.0666 O   0  0
   10.6801  -24.3742    0.0679 O   0  0
    8.0399  -23.9782    1.3128 C   0  0
    7.4407  -25.9516   -0.0359 O   0  0
    6.0843  -25.9953    0.0110 C   0  0
    5.1925  -24.9293   -0.0011 C   0  0
    3.8109  -25.1592    0.0492 C   0  0
    3.3003  -26.4610    0.1170 C   0  0
    4.1956  -27.5327    0.1141 C   0  0
    5.5717  -27.2961    0.0638 C   0  0
    1.8146  -26.6944    0.1427 C   0  0
    1.2662  -26.5461   -1.1599 O   0  0
    8.1108  -23.9388   -1.2660 C   0  0
   10.3793  -23.4485    0.0573 H   0  0
    7.0528  -23.5162    1.3718 H   0  0
    8.7704  -23.1715    1.4308 H   0  0
    8.1294  -24.6397    2.1826 H   0  0
    5.5168  -23.8990   -0.0553 H   0  0
    3.1293  -24.3101    0.0305 H   0  0
    3.8354  -28.5585    0.1507 H   0  0
    6.2590  -28.1406    0.0660 H   0  0
    1.5810  -27.7018    0.5026 H   0  0
    1.3231  -25.9838    0.8154 H   0  0
    1.9964  -26.6288   -1.7974 H   0  0
    7.0973  -23.5660   -1.4226 H   0  0
    8.3529  -24.5492   -2.1443 H   0  0
    8.7753  -23.0689   -1.2709 H   0  0
  1  2  1  0
  1  3  2  0
  1  4  1  0
  2  5  1  0
  2  6  1  0
  2 15  1  0
  4 16  1  0
  5 17  1  0
  5 18  1  0
  5 19  1  0
  6  7  1  0
  7  8  1  0
  7 12  2  0
  8  9  2  0
  8 20  1  0
  9 10  1  0
  9 21  1  0
 10 11  2  0
 10 13  1  0
 11 12  1  0
 11 22  1  0
 12 23  1  0
 13 14  1  0
 13 24  1  0
 13 25  1  0
 14 26  1  0
 15 27  1  0
 15 28  1  0
 15 29  1  0
M  END
> <Name>
CHEMBL2203301

> <Clean Energy>
18.5569

> <chembl_id>
CHEMBL2203301

> <chembl_pref_name>
None

> <efficacy>
0.056980057

> <Forcefield>
MMFF

> <ForcefieldBase>
MMFF

> <ForcefieldFFML>
<?xml version="1.0" encoding="UTF-8"?>
<!DOCTYPE ffml SYSTEM "Ffml.dtd">
<ffml version="1.0">
<forcefield name="MMFF" derivedFrom="MMFF" base="MMFF">
<atomTypes>
<atomType
name="C100"
element="C"
mass="12.011"
annotation=""/>
<atomType
name="O101"
element="O"
mass="16"
annotation=""/>
<atomType
name="H102"
element="H"
mass="1.008"
annotation=""/>
</atomTypes>
<parameters>
</parameters>
</forcefield>
</ffml>

> <Initial Potential Energy>
94.30248

> <Initial RMS Gradient>
28.42833

> <Minimization Criteria>
CONJUG> Minimization exiting with gradient tolerance ( 0.0100000) satisfied.

> <CHARMm Energy>
52.90259

> <Potential Energy>
52.90259

> <RMS Gradient>
0.00898

> <Bond Energy>
3.19515

> <Angle Energy>
16.99674

> <STRBend>
0.2039

> <Dihedral Energy>
0.52487

> <OOPLane>
0.01065

> <Van der Waals Energy>
27.69741

> <Electrostatic Energy>
4.27388

> <Hydrogen Bond Energy>
0

> <Solvation Free Energy>
0

> <HasGasteigerCharges>
true

> <REMARK99>
REMARK  99  MacroMolecule created from Mol2 file
REMARK  99  CHEMBL2203301
REMARK  99  PROTEIN
REMARK  99  GASTEIGER
REMARK  99
REMARK  99

$$$$
CHEMBL4558284
  SciTegic05292516403D

 51 54  0  0  0  0            999 V2000
    2.9096   -0.5232    0.7838 C   0  0
    2.8872   -1.6140    1.6506 C   0  0
    3.9354   -2.5369    1.6581 C   0  0
    3.9862   -0.3186   -0.0932 C   0  0
    5.0506   -1.2459   -0.1055 C   0  0
    5.0117   -2.3253    0.7794 C   0  0
    6.1854   -3.0364    0.6032 N   0  0
    6.9529   -2.4543   -0.3859 C   0  0
    6.2605   -1.3499   -0.8601 C   0  0
    6.7128   -0.4406   -1.9469 C   0  0
    8.2879   -2.9786   -0.7988 C   0  0
    1.7926    0.4429    0.8414 C   0  0
    1.2718    0.8065    1.8818 O   0  0
    1.3947    0.8765   -0.3768 O   0  0
    6.5706   -4.1925    1.4118 C   0  0
    5.9399   -5.4913    0.9671 C   0  0
    5.6463   -5.7719   -0.3747 C   0  0
    5.1865   -7.0343   -0.7574 C   0  0
    5.0304   -8.0564    0.1872 C   0  0
    5.2788   -7.7642    1.5343 C   0  0
    5.7366   -6.5014    1.9187 C   0  0
    4.6516   -9.4121   -0.2314 C   0  0
    3.2877   -9.7611   -0.1968 C   0  0
    2.8576  -11.0307   -0.5744 C   0  0
    3.7842  -11.9821   -0.9894 C   0  0
    5.1416  -11.6631   -1.0308 C   0  0
    5.5883  -10.3861   -0.6552 C   0  0
    7.0441  -10.0731   -0.7471 C   0  0
    7.5411   -8.9651   -0.8460 O   0  0
    7.8179  -11.1728   -0.6968 O   0  0
    2.0515   -1.7550    2.3337 H   0  0
    3.9125   -3.3828    2.3383 H   0  0
    4.0250    0.5620   -0.7292 H   0  0
    5.9820    0.3474   -2.1508 H   0  0
    6.8651   -1.0013   -2.8749 H   0  0
    7.6573    0.0408   -1.6730 H   0  0
    8.6602   -2.4644   -1.6902 H   0  0
    8.2360   -4.0458   -1.0347 H   0  0
    9.0197   -2.8298    0.0016 H   0  0
    1.7771    0.3520   -1.1079 H   0  0
    7.6608   -4.2889    1.3882 H   0  0
    6.2931   -3.9570    2.4464 H   0  0
    5.7982   -5.0254   -1.1511 H   0  0
    5.0013   -7.2319   -1.8111 H   0  0
    5.1465   -8.5300    2.2936 H   0  0
    5.9614   -6.3240    2.9686 H   0  0
    2.5499   -9.0274    0.1266 H   0  0
    1.8010  -11.2854   -0.5424 H   0  0
    3.4494  -12.9712   -1.2870 H   0  0
    5.8511  -12.4124   -1.3703 H   0  0
    8.7270  -10.8093   -0.7371 H   0  0
  1  2  2  0
  1 12  1  0
  2  3  1  0
  2 31  1  0
  3  6  2  0
  3 32  1  0
  4  1  1  0
  4 33  1  0
  5  4  2  0
  5  6  1  0
  6  7  1  0
  7  8  1  0
  7 15  1  0
  8  9  2  0
  8 11  1  0
  9  5  1  0
  9 10  1  0
 10 34  1  0
 10 35  1  0
 10 36  1  0
 11 37  1  0
 11 38  1  0
 11 39  1  0
 12 13  2  0
 12 14  1  0
 14 40  1  0
 15 16  1  0
 15 41  1  0
 15 42  1  0
 16 17  2  0
 17 18  1  0
 17 43  1  0
 18 19  2  0
 18 44  1  0
 19 20  1  0
 19 22  1  0
 20 21  2  0
 20 45  1  0
 21 16  1  0
 21 46  1  0
 22 23  2  0
 23 24  1  0
 23 47  1  0
 24 25  2  0
 24 48  1  0
 25 26  1  0
 25 49  1  0
 26 27  2  0
 26 50  1  0
 27 22  1  0
 27 28  1  0
 28 29  2  0
 28 30  1  0
 30 51  1  0
M  END
> <Name>
CHEMBL4558284

> <Clean Energy>
43.4459

> <chembl_id>
CHEMBL4558284

> <chembl_pref_name>
None

> <efficacy>
0.16

> <Forcefield>
MMFF

> <ForcefieldBase>
MMFF

> <ForcefieldFFML>
<?xml version="1.0" encoding="UTF-8"?>
<!DOCTYPE ffml SYSTEM "Ffml.dtd">
<ffml version="1.0">
<forcefield name="MMFF" derivedFrom="MMFF" base="MMFF">
<atomTypes>
<atomType
name="C100"
element="C"
mass="12.011"
annotation=""/>
<atomType
name="N101"
element="N"
mass="14.007"
annotation=""/>
<atomType
name="O102"
element="O"
mass="16"
annotation=""/>
<atomType
name="H103"
element="H"
mass="1.008"
annotation=""/>
</atomTypes>
<parameters>
</parameters>
</forcefield>
</ffml>

> <Initial Potential Energy>
468.19547

> <Initial RMS Gradient>
144.05221

> <Minimization Criteria>
CONJUG> Minimization exiting with gradient tolerance ( 0.0100000) satisfied.

> <CHARMm Energy>
73.88407

> <Potential Energy>
73.88407

> <RMS Gradient>
0.00872

> <Bond Energy>
7.13934

> <Angle Energy>
11.37217

> <STRBend>
0.06937

> <Dihedral Energy>
14.90023

> <OOPLane>
0.10048

> <Van der Waals Energy>
59.10402

> <Electrostatic Energy>
-18.80155

> <Hydrogen Bond Energy>
0

> <Solvation Free Energy>
0

> <HasGasteigerCharges>
true

> <REMARK99>
REMARK  99  MacroMolecule created from Mol2 file
REMARK  99  CHEMBL4558284
REMARK  99  PROTEIN
REMARK  99  GASTEIGER
REMARK  99
REMARK  99

$$$$
CHEMBL4593237
  SciTegic05292516403D

 52 55  0  0  0  0            999 V2000
   29.4147  -10.3567   -0.8774 C   0  0
   29.4115  -11.1835    0.2486 C   0  0
   30.6013  -11.5212    0.9173 C   0  0
   30.6168   -9.8470   -1.3560 C   0  0
   31.8175  -10.1538   -0.6962 C   0  0
   31.7975  -10.9838    0.4177 C   0  0
   33.1247  -11.0815    0.7820 N   0  0
   33.8650  -10.2688   -0.0635 C   0  0
   33.0918   -9.7451   -0.9959 N   0  0
   33.6452  -11.9087    1.8677 C   0  0
   34.6898  -12.8970    1.4034 C   0  0
   34.5232  -13.6312    0.2222 C   0  0
   35.5553  -14.4371   -0.2590 C   0  0
   36.7666  -14.5642    0.4406 C   0  0
   36.8903  -13.9015    1.6695 C   0  0
   35.8667  -13.0743    2.1444 C   0  0
   37.8609  -15.3740   -0.1242 C   0  0
   37.6057  -16.7353   -0.3969 C   0  0
   38.5698  -17.5589   -0.9761 C   0  0
   39.8176  -17.0408   -1.2952 C   0  0
   40.1114  -15.7069   -1.0207 C   0  0
   39.1457  -14.8691   -0.4323 C   0  0
   39.5158  -13.4417   -0.2099 C   0  0
   40.7852  -13.2082    0.2638 N   0  0
   38.7503  -12.5125   -0.4291 O   0  0
   35.3475  -10.0633    0.0497 C   0  0
   35.7986   -8.7406   -0.5730 C   0  0
   37.2991   -8.5419   -0.4238 C   0  0
   30.6188   -9.0493   -2.4742 O   0  0
   28.4861  -10.1109   -1.3846 H   0  0
   28.4644  -11.5784    0.6127 H   0  0
   30.5749  -12.1690    1.7867 H   0  0
   34.0509  -11.2121    2.6106 H   0  0
   32.8187  -12.4549    2.3319 H   0  0
   33.6156  -13.5374   -0.3720 H   0  0
   35.4210  -14.9392   -1.2156 H   0  0
   37.8062  -13.9928    2.2499 H   0  0
   36.0202  -12.5375    3.0781 H   0  0
   36.6293  -17.1590   -0.1636 H   0  0
   38.3378  -18.5996   -1.1875 H   0  0
   40.5623  -17.6732   -1.7684 H   0  0
   41.0903  -15.3245   -1.3030 H   0  0
   41.4542  -13.9275    0.5111 H   0  0
   41.0305  -12.2384    0.4152 H   0  0
   35.6460  -10.0725    1.1040 H   0  0
   35.8602  -10.8918   -0.4524 H   0  0
   35.5401   -8.7157   -1.6386 H   0  0
   35.2744   -7.9027   -0.0975 H   0  0
   37.6027   -7.5930   -0.8768 H   0  0
   37.8524   -9.3471   -0.9178 H   0  0
   37.5894   -8.5227    0.6315 H   0  0
   31.5767   -8.9072   -2.6382 H   0  0
  1  2  2  0
  1 30  1  0
  2  3  1  0
  2 31  1  0
  3  6  2  0
  3 32  1  0
  4  1  1  0
  4 29  1  0
  5  4  2  0
  5  6  1  0
  6  7  1  0
  7  8  1  0
  7 10  1  0
  8  9  2  0
  8 26  1  0
  9  5  1  0
 10 11  1  0
 10 33  1  0
 10 34  1  0
 11 12  2  0
 12 13  1  0
 12 35  1  0
 13 14  2  0
 13 36  1  0
 14 15  1  0
 14 17  1  0
 15 16  2  0
 15 37  1  0
 16 11  1  0
 16 38  1  0
 17 18  2  0
 18 19  1  0
 18 39  1  0
 19 20  2  0
 19 40  1  0
 20 21  1  0
 20 41  1  0
 21 22  2  0
 21 42  1  0
 22 17  1  0
 22 23  1  0
 23 24  1  0
 23 25  2  0
 24 43  1  0
 24 44  1  0
 26 27  1  0
 26 45  1  0
 26 46  1  0
 27 28  1  0
 27 47  1  0
 27 48  1  0
 28 49  1  0
 28 50  1  0
 28 51  1  0
 29 52  1  0
M  END
> <Name>
CHEMBL4593237

> <Clean Energy>
46.884499

> <chembl_id>
CHEMBL4593237

> <chembl_pref_name>
None

> <efficacy>
0.194681861

> <Forcefield>
MMFF

> <ForcefieldBase>
MMFF

> <ForcefieldFFML>
<?xml version="1.0" encoding="UTF-8"?>
<!DOCTYPE ffml SYSTEM "Ffml.dtd">
<ffml version="1.0">
<forcefield name="MMFF" derivedFrom="MMFF" base="MMFF">
<atomTypes>
<atomType
name="C100"
element="C"
mass="12.011"
annotation=""/>
<atomType
name="N101"
element="N"
mass="14.007"
annotation=""/>
<atomType
name="O102"
element="O"
mass="16"
annotation=""/>
<atomType
name="H103"
element="H"
mass="1.008"
annotation=""/>
</atomTypes>
<parameters>
</parameters>
</forcefield>
</ffml>

> <Initial Potential Energy>
246.98149

> <Initial RMS Gradient>
38.64476

> <Minimization Criteria>
CONJUG> Minimization exiting with gradient tolerance ( 0.0100000) satisfied.

> <CHARMm Energy>
62.65376

> <Potential Energy>
62.65376

> <RMS Gradient>
0.00976

> <Bond Energy>
7.14314

> <Angle Energy>
7.86638

> <STRBend>
-0.03363

> <Dihedral Energy>
6.46002

> <OOPLane>
0.06441

> <Van der Waals Energy>
55.99865

> <Electrostatic Energy>
-14.84522

> <Hydrogen Bond Energy>
0

> <Solvation Free Energy>
0

> <HasGasteigerCharges>
true

> <REMARK99>
REMARK  99  MacroMolecule created from Mol2 file
REMARK  99  CHEMBL4593237
REMARK  99  PROTEIN
REMARK  99  GASTEIGER
REMARK  99
REMARK  99

$$$$
CHEMBL1946570
  SciTegic05292516403D

 54 58  0  0  0  0            999 V2000
    6.9355    0.6561   -0.5172 C   0  0
    6.9272   -0.6879   -0.0798 C   0  0
    8.1468   -1.2525    0.3583 C   0  0
    8.1054    1.4411   -0.5077 C   0  0
    9.2868    0.8832   -0.0448 C   0  0
    9.2980   -0.4584    0.3647 C   0  0
   10.6040   -0.7607    0.7890 N   0  0
   11.4021    0.4122    0.7157 C   0  0
   10.5939    1.4206    0.1473 N   0  0
   10.9671    2.7508   -0.1034 C   0  0
   11.0822   -2.0067    1.3398 C   0  0
   12.0570   -2.7299    0.4282 C   0  0
   11.6060   -3.6489   -0.5270 C   0  0
   12.5128   -4.2761   -1.3910 C   0  0
   13.8821   -3.9935   -1.3155 C   0  0
   14.3530   -3.1035   -0.3471 C   0  0
   13.4379   -2.4649    0.5018 C   0  0
   15.6554   -2.6859   -0.2532 O   0  0
   16.5851   -3.6514    0.2582 C   0  0  1  0  0  0
   17.9814   -3.1489   -0.0909 C   0  0
   18.9231   -4.1287   -0.0739 O   0  0
   18.2916   -1.9931   -0.3426 O   0  0
   16.4732   -3.7544    1.7757 C   0  0
    5.6078   -1.4667   -0.0478 C   0  0
    4.7748   -1.1671   -1.0856 F   0  0
    5.8035   -2.8147   -0.0933 F   0  0
    4.8833   -1.2250    1.0824 F   0  0
   14.9242   -4.7241   -2.4841 Cl  0  0
   10.6820    4.8736   -0.5854 O   0  0
   10.0531    3.6671   -0.4694 N   0  0
   12.0002    4.7328   -0.3274 C   0  0
   12.2686    3.4010   -0.0338 C   0  0
   13.6264    3.0892    0.2189 C   0  0
   14.6030    4.1119    0.1957 C   0  0
   14.2511    5.4324   -0.0817 C   0  0
   12.9301    5.7783   -0.3578 C   0  0
   15.4557    6.6657   -0.0859 Cl  0  0
   12.5477    0.4896    1.1305 O   0  0
    6.0101    1.1157   -0.8653 H   0  0
    8.1812   -2.2820    0.7005 H   0  0
    8.0367    2.4696   -0.8476 H   0  0
   11.5883   -1.7841    2.2874 H   0  0
   10.2442   -2.6662    1.5878 H   0  0
   10.5449   -3.8710   -0.6211 H   0  0
   12.1382   -4.9674   -2.1428 H   0  0
   13.8136   -1.7289    1.2127 H   0  0
   16.4443   -4.6293   -0.2111 H   0  0
   18.6378   -5.0462    0.1073 H   0  0
   17.2449   -4.4112    2.1898 H   0  0
   15.4961   -4.1486    2.0711 H   0  0
   16.5765   -2.7681    2.2434 H   0  0
   13.9538    2.0748    0.4238 H   0  0
   15.6471    3.8643    0.3967 H   0  0
   12.6329    6.7988   -0.5851 H   0  0
  1  2  2  0
  1 39  1  0
  2  3  1  0
  2 24  1  0
  3  6  2  0
  3 40  1  0
  4  1  1  0
  4 41  1  0
  5  4  2  0
  5  6  1  0
  6  7  1  0
  7  8  1  0
  7 11  1  0
  8  9  1  0
  8 38  2  0
  9  5  1  0
  9 10  1  0
 10 32  1  0
 11 12  1  0
 11 42  1  0
 11 43  1  0
 12 13  2  0
 13 14  1  0
 13 44  1  0
 14 15  2  0
 14 45  1  0
 15 16  1  0
 15 28  1  0
 16 17  2  0
 16 18  1  0
 17 12  1  0
 17 46  1  0
 18 19  1  0
 19 20  1  0
 19 23  1  0
 19 47  1  0
 20 21  1  0
 20 22  2  0
 21 48  1  0
 23 49  1  0
 23 50  1  0
 23 51  1  0
 24 25  1  0
 24 26  1  0
 24 27  1  0
 29 30  1  0
 30 10  2  0
 31 29  1  0
 31 32  2  0
 32 33  1  0
 33 34  2  0
 33 52  1  0
 34 35  1  0
 34 53  1  0
 35 36  2  0
 35 37  1  0
 36 31  1  0
 36 54  1  0
M  END
> <Name>
CHEMBL1946570

> <Clean Energy>
88.790703

> <chembl_id>
CHEMBL1946570

> <chembl_pref_name>
None

> <efficacy>
0.234212766

> <Forcefield>
MMFF

> <ForcefieldBase>
MMFF

> <ForcefieldFFML>
<?xml version="1.0" encoding="UTF-8"?>
<!DOCTYPE ffml SYSTEM "Ffml.dtd">
<ffml version="1.0">
<forcefield name="MMFF" derivedFrom="MMFF" base="MMFF">
<atomTypes>
<atomType
name="C100"
element="C"
mass="12.011"
annotation=""/>
<atomType
name="N101"
element="N"
mass="14.007"
annotation=""/>
<atomType
name="O102"
element="O"
mass="16"
annotation=""/>
<atomType
name="F103"
element="F"
mass="18.998"
annotation=""/>
<atomType
name="Cl104"
element="Cl"
mass="35.453"
annotation=""/>
<atomType
name="H105"
element="H"
mass="1.008"
annotation=""/>
</atomTypes>
<parameters>
</parameters>
</forcefield>
</ffml>

> <Initial Potential Energy>
204.75567

> <Initial RMS Gradient>
34.7073

> <Minimization Criteria>
STEEPD> Minimization exiting with gradient tolerance ( 3.0000000) satisfied.

> <CHARMm Energy>
91.15359

> <Potential Energy>
91.15359

> <RMS Gradient>
0.16761

> <Bond Energy>
10.64035

> <Angle Energy>
39.9068

> <STRBend>
-1.90956

> <Dihedral Energy>
6.38424

> <OOPLane>
0.26495

> <Van der Waals Energy>
58.03847

> <Electrostatic Energy>
-22.17165

> <Hydrogen Bond Energy>
0

> <Solvation Free Energy>
0

> <HasGasteigerCharges>
true

> <REMARK99>
REMARK  99  MacroMolecule created from Mol2 file
REMARK  99  CHEMBL1946570
REMARK  99  PROTEIN
REMARK  99  GASTEIGER
REMARK  99
REMARK  99

$$$$
CHEMBL3753640
  SciTegic05292516403D

 48 49  0  0  0  0            999 V2000
    5.8499   -5.5132   -0.5316 C   0  0
    4.6794   -5.5925    0.4721 C   0  0
    5.1637   -4.9792    1.7969 C   0  0
    3.4292   -4.8707   -0.0815 C   0  0
    3.5922   -3.3653   -0.3044 C   0  0
    2.3400   -2.7569   -0.9306 C   0  0
    2.5210   -1.3361   -0.9761 O   0  0
    1.3333   -0.6626   -0.9816 C   0  0
    1.1527    0.2940    0.0134 C   0  0
   -0.0550    0.9830    0.0984 C   0  0
   -1.0690    0.7371   -0.8327 C   0  0
   -0.8587   -0.1872   -1.8620 C   0  0
    0.3462   -0.8862   -1.9397 C   0  0
   -2.3818    1.3589   -0.6772 C   0  0
   -3.2528    0.8044    0.1799 C   0  0
   -4.6287    1.2819    0.3742 C   0  0
    4.3133   -7.0764    0.6217 C   0  0
    4.4356   -7.8948   -0.2804 O   0  0
    3.8130   -7.4494    1.8191 O   0  0
   -4.8768    2.6571    0.5113 C   0  0
   -6.1748    3.1290    0.7130 C   0  0
   -7.2342    2.2289    0.7895 C   0  0
   -7.0109    0.8603    0.6722 C   0  0
   -5.7120    0.3874    0.4714 C   0  0
   -5.4981   -1.3282    0.3313 Cl  0  0
   -8.8317    2.8140    1.0341 Cl  0  0
    6.6798   -6.1574   -0.2171 H   0  0
    6.2440   -4.4959   -0.6242 H   0  0
    5.5432   -5.8420   -1.5315 H   0  0
    4.3346   -4.8054    2.4916 H   0  0
    5.6557   -4.0128    1.6398 H   0  0
    5.8846   -5.6367    2.2965 H   0  0
    3.1325   -5.3402   -1.0295 H   0  0
    2.5873   -5.0349    0.6053 H   0  0
    3.7971   -2.8580    0.6457 H   0  0
    4.4461   -3.1504   -0.9563 H   0  0
    2.2056   -3.1390   -1.9490 H   0  0
    1.4637   -3.0235   -0.3248 H   0  0
    1.9350    0.4778    0.7435 H   0  0
   -0.2065    1.6863    0.9113 H   0  0
   -1.6415   -0.3892   -2.5894 H   0  0
    0.4973   -1.6027   -2.7404 H   0  0
   -2.6161    2.2180   -1.3008 H   0  0
   -2.9662   -0.0833    0.7450 H   0  0
    3.5943   -6.7149    2.4207 H   0  0
   -4.0594    3.3744    0.4693 H   0  0
   -6.3492    4.1976    0.8126 H   0  0
   -7.8429    0.1646    0.7378 H   0  0
  1 27  1  0
  1 28  1  0
  1 29  1  0
  2  1  1  0
  2  4  1  0
  2 17  1  0
  3  2  1  0
  3 30  1  0
  3 31  1  0
  3 32  1  0
  4  5  1  0
  4 33  1  0
  4 34  1  0
  5  6  1  0
  5 35  1  0
  5 36  1  0
  6  7  1  0
  6 37  1  0
  6 38  1  0
  7  8  1  0
  8  9  1  0
  8 13  2  0
  9 10  2  0
  9 39  1  0
 10 11  1  0
 10 40  1  0
 11 12  2  0
 11 14  1  0
 12 13  1  0
 12 41  1  0
 13 42  1  0
 14 15  2  0
 14 43  1  0
 15 16  1  0
 15 44  1  0
 16 20  2  0
 17 18  2  0
 17 19  1  0
 19 45  1  0
 20 21  1  0
 20 46  1  0
 21 22  2  0
 21 47  1  0
 22 23  1  0
 22 26  1  0
 23 24  2  0
 23 48  1  0
 24 16  1  0
 24 25  1  0
M  END
> <Name>
CHEMBL3753640

> <Clean Energy>
10.4573

> <chembl_id>
CHEMBL3753640

> <chembl_pref_name>
None

> <efficacy>
0.3

> <Forcefield>
MMFF

> <ForcefieldBase>
MMFF

> <ForcefieldFFML>
<?xml version="1.0" encoding="UTF-8"?>
<!DOCTYPE ffml SYSTEM "Ffml.dtd">
<ffml version="1.0">
<forcefield name="MMFF" derivedFrom="MMFF" base="MMFF">
<atomTypes>
<atomType
name="C100"
element="C"
mass="12.011"
annotation=""/>
<atomType
name="O101"
element="O"
mass="16"
annotation=""/>
<atomType
name="Cl102"
element="Cl"
mass="35.453"
annotation=""/>
<atomType
name="H103"
element="H"
mass="1.008"
annotation=""/>
</atomTypes>
<parameters>
</parameters>
</forcefield>
</ffml>

> <Initial Potential Energy>
91.60855

> <Initial RMS Gradient>
26.49506

> <Minimization Criteria>
STEEPD> Minimization exiting with gradient tolerance ( 3.0000000) satisfied.

> <CHARMm Energy>
37.94413

> <Potential Energy>
37.94413

> <RMS Gradient>
0.06974

> <Bond Energy>
4.85597

> <Angle Energy>
7.44511

> <STRBend>
0.61098

> <Dihedral Energy>
12.86609

> <OOPLane>
0.08014

> <Van der Waals Energy>
51.80262

> <Electrostatic Energy>
-39.71678

> <Hydrogen Bond Energy>
0

> <Solvation Free Energy>
0

> <HasGasteigerCharges>
true

> <REMARK99>
REMARK  99  MacroMolecule created from Mol2 file
REMARK  99  CHEMBL3753640
REMARK  99  PROTEIN
REMARK  99  GASTEIGER
REMARK  99
REMARK  99

$$$$
CHEMBL4536821
  SciTegic05292516403D

 41 42  0  0  0  0            999 V2000
   32.6644   -2.9608   -0.0498 C   0  0
   32.7849   -4.2153    0.4919 C   0  0
   34.0699   -4.6494    0.6930 C   0  0
   35.1769   -3.9493    0.4136 N   0  0
   34.9606   -2.7368   -0.0894 C   0  0
   33.7483   -2.2151   -0.3321 N   0  0
   31.4431   -2.3406   -0.2966 N   0  0
   30.1014   -2.7629   -0.3187 C   0  0
   29.0820   -1.8755    0.1209 C   0  0
   27.7294   -2.2818    0.0743 C   0  0
   27.4185   -3.5796   -0.3529 C   0  0
   28.4128   -4.4621   -0.7561 C   0  0
   29.7434   -4.0526   -0.7413 C   0  0
   29.4533   -0.4922    0.6043 C   0  0
   26.5968   -1.3794    0.4934 C   0  0
   36.3433   -1.6931   -0.4863 S   0  0
   37.7545   -2.6853    0.1817 C   0  0  2  0  0  0
   38.9320   -1.7585    0.4844 C   0  0
   38.9750   -0.6105   -0.2348 O   0  0
   39.8264   -2.0388    1.2740 O   0  0
   34.3747   -6.2001    1.3638 Cl  0  0
   38.1769   -3.7477   -0.8427 C   0  0
   39.0423   -4.8401   -0.2242 C   0  0
   31.9353   -4.8179    0.7753 H   0  0
   31.5905   -1.3817   -0.5933 H   0  0
   26.3818   -3.9123   -0.3816 H   0  0
   28.1338   -5.4582   -1.0968 H   0  0
   30.4967   -4.7429   -1.1094 H   0  0
   28.6819   -0.0560    1.2450 H   0  0
   29.6106    0.1711   -0.2520 H   0  0
   30.3629   -0.5185    1.2135 H   0  0
   25.6226   -1.8076    0.2337 H   0  0
   26.6676   -0.4131   -0.0160 H   0  0
   26.6181   -1.2279    1.5769 H   0  0
   37.4496   -3.1241    1.1378 H   0  0
   38.1598   -0.5062   -0.7719 H   0  0
   37.3016   -4.2383   -1.2844 H   0  0
   38.7341   -3.2857   -1.6678 H   0  0
   39.2769   -5.6025   -0.9743 H   0  0
   38.5219   -5.3312    0.6042 H   0  0
   39.9887   -4.4397    0.1500 H   0  0
  1  2  2  0
  1  7  1  0
  2  3  1  0
  2 24  1  0
  3  4  2  0
  3 21  1  0
  4  5  1  0
  5  6  2  0
  5 16  1  0
  6  1  1  0
  7  8  1  0
  7 25  1  0
  8  9  2  0
  9 10  1  0
  9 14  1  0
 10 11  2  0
 10 15  1  0
 11 12  1  0
 11 26  1  0
 12 13  2  0
 12 27  1  0
 13  8  1  0
 13 28  1  0
 14 29  1  0
 14 30  1  0
 14 31  1  0
 15 32  1  0
 15 33  1  0
 15 34  1  0
 16 17  1  0
 17 18  1  0
 17 22  1  0
 17 35  1  0
 18 19  1  0
 18 20  2  0
 19 36  1  0
 22 23  1  0
 22 37  1  0
 22 38  1  0
 23 39  1  0
 23 40  1  0
 23 41  1  0
M  END
> <Name>
CHEMBL4536821

> <Clean Energy>
8.94475

> <chembl_id>
CHEMBL4536821

> <chembl_pref_name>
None

> <efficacy>
0.26

> <Forcefield>
MMFF

> <ForcefieldBase>
MMFF

> <ForcefieldFFML>
<?xml version="1.0" encoding="UTF-8"?>
<!DOCTYPE ffml SYSTEM "Ffml.dtd">
<ffml version="1.0">
<forcefield name="MMFF" derivedFrom="MMFF" base="MMFF">
<atomTypes>
<atomType
name="C100"
element="C"
mass="12.011"
annotation=""/>
<atomType
name="N101"
element="N"
mass="14.007"
annotation=""/>
<atomType
name="S102"
element="S"
mass="32.066"
annotation=""/>
<atomType
name="O103"
element="O"
mass="16"
annotation=""/>
<atomType
name="Cl104"
element="Cl"
mass="35.453"
annotation=""/>
<atomType
name="H105"
element="H"
mass="1.008"
annotation=""/>
</atomTypes>
<parameters>
</parameters>
</forcefield>
</ffml>

> <Initial Potential Energy>
26.87642

> <Initial RMS Gradient>
38.03372

> <Minimization Criteria>
STEEPD> Minimization exiting with gradient tolerance ( 3.0000000) satisfied.

> <CHARMm Energy>
-84.14991

> <Potential Energy>
-84.14991

> <RMS Gradient>
0.10906

> <Bond Energy>
3.93582

> <Angle Energy>
12.26167

> <STRBend>
0.35771

> <Dihedral Energy>
5.03636

> <OOPLane>
0.14944

> <Van der Waals Energy>
44.2607

> <Electrostatic Energy>
-150.15161

> <Hydrogen Bond Energy>
0

> <Solvation Free Energy>
0

> <HasGasteigerCharges>
true

> <REMARK99>
REMARK  99  MacroMolecule created from Mol2 file
REMARK  99  CHEMBL4536821
REMARK  99  PROTEIN
REMARK  99  GASTEIGER
REMARK  99
REMARK  99

$$$$
CHEMBL3355870
  SciTegic05292516403D

 79 82  0  0  0  0            999 V2000
    4.8716   -4.8286    2.4922 C   0  0
    4.1473   -5.0102    1.1379 C   0  0  2  0  0  0
    4.4225   -3.7976    0.2341 C   0  0
    4.2994   -4.4329    3.5048 O   0  0
    6.1911   -5.1364    2.4831 O   0  0
    2.7024   -5.0828    1.3977 N   0  0
    2.0727   -6.4648   -0.5704 C   0  0
    1.6831   -5.6601    0.6475 C   0  0
    0.3989   -5.4752    1.0149 C   0  0
   -0.8002   -6.0607    0.3502 C   0  0
   -2.0139   -5.1994    0.2471 C   0  0
   -3.2670   -5.8198    0.1346 C   0  0
   -4.4303   -5.0525    0.0287 C   0  0
   -4.3474   -3.6611    0.0237 C   0  0
   -3.1027   -3.0364    0.1190 C   0  0
   -1.9357   -3.8004    0.2273 C   0  0
   -0.8373   -7.2247   -0.0325 O   0  0
    5.7896   -3.8503   -0.3987 C   0  0
    6.8250   -3.0348    0.0758 C   0  0
    8.1104   -3.1343   -0.4620 C   0  0
    8.3729   -4.0503   -1.4781 C   0  0
    7.3350   -4.8371   -1.9783 C   0  0
    6.0510   -4.7434   -1.4428 C   0  0
    9.5847   -4.2638   -2.0664 O   0  0
   10.7338   -3.7399   -1.3974 C   0  0
   11.9541   -4.4730   -1.9372 C   0  0
   13.2565   -3.9571   -1.3371 C   0  0
   14.3025   -4.8156   -1.8067 O   0  0
   15.5595   -4.5927   -1.3120 C   0  0
   16.0990   -3.3437   -1.0101 C   0  0
   17.4159   -3.2449   -0.5378 C   0  0
   18.2149   -4.3828   -0.3777 C   0  0
   17.6643   -5.6321   -0.6871 C   0  0
   16.3533   -5.7329   -1.1643 C   0  0
   19.5204   -4.2366    0.1331 N   0  0
   20.3686   -4.7298   -0.6444 N   0  0
   21.6690   -4.5295   -0.1459 C   0  0
   22.5433   -3.6802   -0.8272 C   0  0
   23.8473   -3.4875   -0.3641 C   0  0
   24.3029   -4.1477    0.7796 C   0  0
   23.4395   -5.0084    1.4572 C   0  0
   22.1319   -5.2003    0.9927 C   0  0
   25.5974   -3.8702    1.1207 O   0  0
   26.1161   -4.5189    2.2756 C   0  0
    4.4828   -5.9600    0.7065 H   0  0
    3.6820   -3.7350   -0.5741 H   0  0
    4.3098   -2.8649    0.8030 H   0  0
    6.5371   -5.4092    1.6081 H   0  0
    2.4234   -4.6663    2.2925 H   0  0
    1.2304   -6.7089   -1.2219 H   0  0
    2.5494   -7.4017   -0.2644 H   0  0
    2.7787   -5.9059   -1.1925 H   0  0
    0.1671   -4.8580    1.8778 H   0  0
   -3.3413   -6.9060    0.1311 H   0  0
   -5.3973   -5.5421   -0.0526 H   0  0
   -5.2518   -3.0629   -0.0618 H   0  0
   -3.0411   -1.9505    0.1011 H   0  0
   -0.9769   -3.2891    0.2733 H   0  0
    6.6397   -2.3202    0.8767 H   0  0
    8.8822   -2.4812   -0.0692 H   0  0
    7.5251   -5.5358   -2.7903 H   0  0
    5.2659   -5.3760   -1.8508 H   0  0
   10.8116   -2.6655   -1.5991 H   0  0
   10.6744   -3.9129   -0.3158 H   0  0
   11.8520   -5.5492   -1.7445 H   0  0
   11.9908   -4.3918   -3.0313 H   0  0
   13.4246   -2.9279   -1.6724 H   0  0
   13.2157   -3.9900   -0.2420 H   0  0
   15.5371   -2.4281   -1.1547 H   0  0
   17.8320   -2.2674   -0.3043 H   0  0
   18.2607   -6.5315   -0.5605 H   0  0
   15.9379   -6.7082   -1.4070 H   0  0
   22.2103   -3.1636   -1.7230 H   0  0
   24.5155   -2.8196   -0.9024 H   0  0
   23.7500   -5.5482    2.3454 H   0  0
   21.4706   -5.8796    1.5236 H   0  0
   27.1516   -4.1905    2.4071 H   0  0
   26.1246   -5.6061    2.1463 H   0  0
   25.5582   -4.2316    3.1729 H   0  0
  1  2  1  0
  1  4  2  0
  1  5  1  0
  2  3  1  0
  2  6  1  0
  2 45  1  0
  3 18  1  0
  3 46  1  0
  3 47  1  0
  5 48  1  0
  6  8  1  0
  6 49  1  0
  7  8  1  0
  7 50  1  0
  7 51  1  0
  7 52  1  0
  8  9  2  0
  9 10  1  0
  9 53  1  0
 10 11  1  0
 10 17  2  0
 11 12  1  0
 11 16  2  0
 12 13  2  0
 12 54  1  0
 13 14  1  0
 13 55  1  0
 14 15  2  0
 14 56  1  0
 15 16  1  0
 15 57  1  0
 16 58  1  0
 18 19  1  0
 18 23  2  0
 19 20  2  0
 19 59  1  0
 20 21  1  0
 20 60  1  0
 21 22  2  0
 21 24  1  0
 22 23  1  0
 22 61  1  0
 23 62  1  0
 24 25  1  0
 25 26  1  0
 25 63  1  0
 25 64  1  0
 26 27  1  0
 26 65  1  0
 26 66  1  0
 27 28  1  0
 27 67  1  0
 27 68  1  0
 28 29  1  0
 29 30  1  0
 29 34  2  0
 30 31  2  0
 30 69  1  0
 31 32  1  0
 31 70  1  0
 32 33  2  0
 32 35  1  0
 33 34  1  0
 33 71  1  0
 34 72  1  0
 35 36  2  0
 36 37  1  0
 37 38  1  0
 37 42  2  0
 38 39  2  0
 38 73  1  0
 39 40  1  0
 39 74  1  0
 40 41  2  0
 40 43  1  0
 41 42  1  0
 41 75  1  0
 42 76  1  0
 43 44  1  0
 44 77  1  0
 44 78  1  0
 44 79  1  0
M  END
> <Name>
CHEMBL3355870

> <Clean Energy>
29.417999

> <chembl_id>
CHEMBL3355870

> <chembl_pref_name>
None

> <efficacy>
0.24

> <Forcefield>
MMFF

> <ForcefieldBase>
MMFF

> <ForcefieldFFML>
<?xml version="1.0" encoding="UTF-8"?>
<!DOCTYPE ffml SYSTEM "Ffml.dtd">
<ffml version="1.0">
<forcefield name="MMFF" derivedFrom="MMFF" base="MMFF">
<atomTypes>
<atomType
name="C100"
element="C"
mass="12.011"
annotation=""/>
<atomType
name="O101"
element="O"
mass="16"
annotation=""/>
<atomType
name="N102"
element="N"
mass="14.007"
annotation=""/>
<atomType
name="H103"
element="H"
mass="1.008"
annotation=""/>
</atomTypes>
<parameters>
</parameters>
</forcefield>
</ffml>

> <Initial Potential Energy>
317.72179

> <Initial RMS Gradient>
30.125

> <Minimization Criteria>
CONJUG> Minimization exiting with gradient tolerance ( 0.0100000) satisfied.

> <CHARMm Energy>
156.5555

> <Potential Energy>
156.5555

> <RMS Gradient>
0.00952

> <Bond Energy>
8.60253

> <Angle Energy>
30.6532

> <STRBend>
0.73796

> <Dihedral Energy>
10.33696

> <OOPLane>
0.17801

> <Van der Waals Energy>
89.60018

> <Electrostatic Energy>
16.44666

> <Hydrogen Bond Energy>
0

> <Solvation Free Energy>
0

> <HasGasteigerCharges>
true

> <REMARK99>
REMARK  99  MacroMolecule created from Mol2 file
REMARK  99  CHEMBL3355870
REMARK  99  PROTEIN
REMARK  99  GASTEIGER
REMARK  99
REMARK  99

$$$$
CHEMBL549746
  SciTegic05292516403D

 61 64  0  0  0  0            999 V2000
   -7.1700   -4.9757    0.5375 C   0  0
   -8.3489   -5.4130    1.1658 C   0  0
   -8.6088   -6.7717    1.2942 C   0  0
   -7.7113   -7.7137    0.7745 C   0  0
   -6.5440   -7.2928    0.0975 C   0  0
   -6.2839   -5.9265   -0.0100 C   0  0
   -5.4892   -7.9870   -0.5682 C   0  0
   -4.6981   -7.0256   -1.1965 C   0  0
   -5.0999   -5.7832   -0.7311 N   0  0
   -3.6387   -7.2154   -2.2337 C   0  0
   -4.5424   -4.4691   -1.0967 C   0  0
   -3.0334   -4.3702   -1.2016 C   0  0
   -2.1840   -4.7341   -0.1423 C   0  0
   -0.7952   -4.5893   -0.2570 C   0  0
   -0.2436   -4.0984   -1.4411 C   0  0
   -1.0709   -3.7208   -2.4969 C   0  0
   -2.4558   -3.8451   -2.3730 C   0  0
   -0.0498   -5.0153    0.8133 O   0  0
    1.1752   -4.2912    1.0712 C   0  0  2  0  0  0
    2.3615   -5.0260    0.4463 C   0  0
    1.3273   -4.2367    2.5961 C   0  0
    2.0952   -6.3105    0.1076 O   0  0
    3.4647   -4.5240    0.2715 O   0  0
    2.4129   -3.2794    3.0634 C   0  0
   -5.3590   -9.4391   -0.6722 C   0  0
   -4.0001  -10.0400   -0.6294 C   0  0
   -6.3301  -10.1863   -0.7785 O   0  0
   -3.7244  -11.1043   -1.4937 C   0  0
   -2.4610  -11.6931   -1.4936 C   0  0
   -1.4779  -11.2292   -0.6214 C   0  0
   -1.7481  -10.1786    0.2556 C   0  0
   -3.0123   -9.5813    0.2549 C   0  0
    0.0794  -11.9548   -0.6241 Cl  0  0
   -9.1527   -4.4050    1.6215 O   0  0
  -10.5215   -4.7167    1.8815 C   0  0
  -11.2081   -3.5657    2.0978 F   0  0
  -11.1062   -5.3462    0.8368 F   0  0
  -10.6554   -5.4805    2.9906 F   0  0
   -6.9662   -3.9126    0.4535 H   0  0
   -9.5034   -7.1517    1.7843 H   0  0
   -7.9449   -8.7751    0.8589 H   0  0
   -3.6910   -6.4395   -3.0027 H   0  0
   -3.7720   -8.1657   -2.7603 H   0  0
   -2.6424   -7.2165   -1.7834 H   0  0
   -5.0236   -4.2079   -2.0471 H   0  0
   -4.8648   -3.7434   -0.3427 H   0  0
   -2.6038   -5.1309    0.7802 H   0  0
    0.8298   -4.0093   -1.5856 H   0  0
   -0.6243   -3.3366   -3.4158 H   0  0
   -3.0839   -3.5393   -3.2085 H   0  0
    1.1204   -3.2732    0.6662 H   0  0
    0.3723   -3.9287    3.0406 H   0  0
    1.5319   -5.2400    2.9908 H   0  0
    1.1511   -6.5129    0.2846 H   0  0
    2.4167   -3.2219    4.1566 H   0  0
    2.2422   -2.2712    2.6729 H   0  0
    3.4058   -3.6104    2.7464 H   0  0
   -4.4928  -11.4609   -2.1742 H   0  0
   -2.2534  -12.5115   -2.1754 H   0  0
   -0.9750   -9.8341    0.9392 H   0  0
   -3.2208   -8.7696    0.9479 H   0  0
  1  2  1  0
  1  6  2  0
  1 39  1  0
  2  3  2  0
  2 34  1  0
  3  4  1  0
  3 40  1  0
  4  5  2  0
  4 41  1  0
  5  7  1  0
  6  5  1  0
  6  9  1  0
  7  8  2  0
  7 25  1  0
  8  9  1  0
  8 10  1  0
  9 11  1  0
 10 42  1  0
 10 43  1  0
 10 44  1  0
 11 12  1  0
 11 45  1  0
 11 46  1  0
 12 13  1  0
 12 17  2  0
 13 14  2  0
 13 47  1  0
 14 15  1  0
 14 18  1  0
 15 16  2  0
 15 48  1  0
 16 17  1  0
 16 49  1  0
 17 50  1  0
 18 19  1  0
 19 20  1  0
 19 21  1  0
 19 51  1  0
 20 22  1  0
 20 23  2  0
 21 24  1  0
 21 52  1  0
 21 53  1  0
 22 54  1  0
 24 55  1  0
 24 56  1  0
 24 57  1  0
 25 26  1  0
 25 27  2  0
 26 28  1  0
 26 32  2  0
 28 29  2  0
 28 58  1  0
 29 30  1  0
 29 59  1  0
 30 31  2  0
 30 33  1  0
 31 32  1  0
 31 60  1  0
 32 61  1  0
 34 35  1  0
 35 36  1  0
 35 37  1  0
 35 38  1  0
M  END
> <Name>
CHEMBL549746

> <Clean Energy>
87.874702

> <chembl_id>
CHEMBL549746

> <chembl_pref_name>
None

> <efficacy>
0.2

> <Forcefield>
MMFF

> <ForcefieldBase>
MMFF

> <ForcefieldFFML>
<?xml version="1.0" encoding="UTF-8"?>
<!DOCTYPE ffml SYSTEM "Ffml.dtd">
<ffml version="1.0">
<forcefield name="MMFF" derivedFrom="MMFF" base="MMFF">
<atomTypes>
<atomType
name="C100"
element="C"
mass="12.011"
annotation=""/>
<atomType
name="N101"
element="N"
mass="14.007"
annotation=""/>
<atomType
name="O102"
element="O"
mass="16"
annotation=""/>
<atomType
name="Cl103"
element="Cl"
mass="35.453"
annotation=""/>
<atomType
name="F104"
element="F"
mass="18.998"
annotation=""/>
<atomType
name="H105"
element="H"
mass="1.008"
annotation=""/>
</atomTypes>
<parameters>
</parameters>
</forcefield>
</ffml>

> <Initial Potential Energy>
307.60919

> <Initial RMS Gradient>
37.76697

> <Minimization Criteria>
CONJUG> Minimization exiting with gradient tolerance ( 0.0100000) satisfied.

> <CHARMm Energy>
112.72759

> <Potential Energy>
112.72759

> <RMS Gradient>
0.00992

> <Bond Energy>
8.19235

> <Angle Energy>
21.96742

> <STRBend>
0.3936

> <Dihedral Energy>
9.72987

> <OOPLane>
0.20437

> <Van der Waals Energy>
65.79318

> <Electrostatic Energy>
6.44679

> <Hydrogen Bond Energy>
0

> <Solvation Free Energy>
0

> <HasGasteigerCharges>
true

> <REMARK99>
REMARK  99  MacroMolecule created from Mol2 file
REMARK  99  CHEMBL549746
REMARK  99  PROTEIN
REMARK  99  GASTEIGER
REMARK  99
REMARK  99

$$$$
CHEMBL559567
  SciTegic05292516403D

 55 58  0  0  0  0            999 V2000
    8.6255   -1.4039    0.5668 C   0  0
    8.2960   -2.6266   -0.0007 C   0  0
    6.9598   -2.9727   -0.2462 C   0  0
    7.6086   -0.4960    0.8827 C   0  0
    6.2653   -0.8482    0.6385 C   0  0
    5.9176   -2.0845    0.0890 C   0  0
    4.4920   -2.1170   -0.0541 C   0  0
    4.0109   -0.8936    0.4098 C   0  0
    5.0925   -0.1273    0.8030 N   0  0
    2.6052   -0.3868    0.4585 C   0  0
    5.0230    1.2452    1.3234 C   0  0
    4.9025    2.3276    0.2663 C   0  0
    4.3285    3.5703    0.6131 C   0  0
    4.2490    4.6310   -0.3046 C   0  0
    4.7614    4.4498   -1.5865 C   0  0
    5.3403    3.2297   -1.9455 C   0  0
    5.4171    2.1814   -1.0281 C   0  0
    3.6792    5.7856    0.1736 O   0  0
    3.4458    6.8440   -0.7742 C   0  0
    2.8538    8.0601   -0.0759 C   0  0
    2.5032    9.0824   -0.6525 O   0  0
    2.7650    7.9261    1.2704 O   0  0
    3.6536   -3.1548   -0.6614 C   0  0
    2.6833   -2.8647   -1.3591 O   0  0
    3.9728   -4.5913   -0.4615 C   0  0
    4.3877   -5.0991    0.7769 C   0  0
    4.6308   -6.4686    0.9223 C   0  0
    4.4557   -7.3258   -0.1642 C   0  0
    4.0452   -6.8262   -1.3990 C   0  0
    3.7937   -5.4608   -1.5457 C   0  0
    4.7309   -9.0139    0.0239 Cl  0  0
    9.8902   -0.9561    0.8315 O   0  0
   10.9449   -1.9119    0.7886 C   0  0
   11.1544   -2.3639   -0.4685 F   0  0
   12.0887   -1.3240    1.2100 F   0  0
   10.6957   -2.9623    1.6022 F   0  0
    9.0513   -3.3528   -0.2874 H   0  0
    6.7512   -3.9354   -0.7089 H   0  0
    7.8647    0.4786    1.2898 H   0  0
    2.3961    0.1257    1.4019 H   0  0
    1.8798   -1.2020    0.3840 H   0  0
    2.4242    0.3085   -0.3670 H   0  0
    4.1703    1.2794    2.0101 H   0  0
    5.9184    1.4276    1.9263 H   0  0
    3.9404    3.7229    1.6189 H   0  0
    4.7477    5.2309   -2.3364 H   0  0
    5.7456    3.1042   -2.9477 H   0  0
    5.8866    1.2517   -1.3458 H   0  0
    4.3951    7.1652   -1.2158 H   0  0
    2.7307    6.5070   -1.5317 H   0  0
    3.1095    7.0415    1.5269 H   0  0
    4.5081   -4.4492    1.6397 H   0  0
    4.9451   -6.8611    1.8864 H   0  0
    3.9123   -7.4901   -2.2477 H   0  0
    3.4551   -5.0695   -2.5038 H   0  0
  1  2  2  0
  1 32  1  0
  2  3  1  0
  2 37  1  0
  3  6  2  0
  3 38  1  0
  4  1  1  0
  4 39  1  0
  5  4  2  0
  5  6  1  0
  6  7  1  0
  7  8  2  0
  7 23  1  0
  8  9  1  0
  8 10  1  0
  9  5  1  0
  9 11  1  0
 10 40  1  0
 10 41  1  0
 10 42  1  0
 11 12  1  0
 11 43  1  0
 11 44  1  0
 12 13  2  0
 13 14  1  0
 13 45  1  0
 14 15  2  0
 14 18  1  0
 15 16  1  0
 15 46  1  0
 16 17  2  0
 16 47  1  0
 17 12  1  0
 17 48  1  0
 18 19  1  0
 19 20  1  0
 19 49  1  0
 19 50  1  0
 20 21  2  0
 20 22  1  0
 22 51  1  0
 23 24  2  0
 23 25  1  0
 25 26  2  0
 26 27  1  0
 26 52  1  0
 27 28  2  0
 27 53  1  0
 28 29  1  0
 28 31  1  0
 29 30  2  0
 29 54  1  0
 30 25  1  0
 30 55  1  0
 32 33  1  0
 33 34  1  0
 33 35  1  0
 33 36  1  0
M  END
> <Name>
CHEMBL559567

> <Clean Energy>
55.629902

> <chembl_id>
CHEMBL559567

> <chembl_pref_name>
None

> <efficacy>
0.2

> <Forcefield>
MMFF

> <ForcefieldBase>
MMFF

> <ForcefieldFFML>
<?xml version="1.0" encoding="UTF-8"?>
<!DOCTYPE ffml SYSTEM "Ffml.dtd">
<ffml version="1.0">
<forcefield name="MMFF" derivedFrom="MMFF" base="MMFF">
<atomTypes>
<atomType
name="C100"
element="C"
mass="12.011"
annotation=""/>
<atomType
name="N101"
element="N"
mass="14.007"
annotation=""/>
<atomType
name="O102"
element="O"
mass="16"
annotation=""/>
<atomType
name="Cl103"
element="Cl"
mass="35.453"
annotation=""/>
<atomType
name="F104"
element="F"
mass="18.998"
annotation=""/>
<atomType
name="H105"
element="H"
mass="1.008"
annotation=""/>
</atomTypes>
<parameters>
</parameters>
</forcefield>
</ffml>

> <Initial Potential Energy>
725.68462

> <Initial RMS Gradient>
250.08202

> <Minimization Criteria>
CONJUG> Minimization exiting with gradient tolerance ( 0.0100000) satisfied.

> <CHARMm Energy>
109.85295

> <Potential Energy>
109.85295

> <RMS Gradient>
0.00851

> <Bond Energy>
7.47045

> <Angle Energy>
21.89439

> <STRBend>
0.18218

> <Dihedral Energy>
5.70649

> <OOPLane>
0.13168

> <Van der Waals Energy>
64.07776

> <Electrostatic Energy>
10.38999

> <Hydrogen Bond Energy>
0

> <Solvation Free Energy>
0

> <HasGasteigerCharges>
true

> <REMARK99>
REMARK  99  MacroMolecule created from Mol2 file
REMARK  99  CHEMBL559567
REMARK  99  PROTEIN
REMARK  99  GASTEIGER
REMARK  99
REMARK  99

$$$$
CHEMBL459521
  SciTegic05292516403D

 36 38  0  0  0  0            999 V2000
   10.8030  -16.1228    0.2503 C   0  0
   11.0204  -17.3473   -0.3277 C   0  0
   12.3352  -17.6994   -0.4892 C   0  0
   13.3878  -16.9486   -0.1423 N   0  0
   13.0797  -15.7674    0.3949 C   0  0
   11.8292  -15.3266    0.6019 N   0  0
   14.3955  -14.6705    0.8623 S   0  0
   15.8042  -15.5670    0.1547 C   0  0
   17.1163  -14.8262    0.3073 C   0  0
   18.1545  -15.5290   -0.2288 O   0  0
   17.3037  -13.7385    0.8287 O   0  0
   12.7574  -19.2019   -1.2057 Cl  0  0
    9.5375  -15.5842    0.4661 N   0  0
    8.2304  -16.0795    0.4256 C   0  0
    5.5482  -17.0178    0.1806 C   0  0
    6.5724  -17.8840    0.5552 C   0  0
    7.8948  -17.4194    0.6710 C   0  0
    5.8642  -15.6931   -0.0521 C   0  0
    7.1818  -15.2300    0.0709 C   0  0
    7.2512  -13.7763   -0.3018 C   0  0
    5.7790  -13.3577   -0.1842 C   0  0
    4.9428  -14.6023   -0.5033 C   0  0
   10.2222  -17.9863   -0.6720 H   0  0
   15.9044  -16.5323    0.6613 H   0  0
   15.6334  -15.7163   -0.9165 H   0  0
   17.8949  -16.3890   -0.6126 H   0  0
    9.6207  -14.6254    0.7873 H   0  0
    4.5284  -17.3770    0.0799 H   0  0
    6.3366  -18.9265    0.7631 H   0  0
    8.6523  -18.1257    0.9983 H   0  0
    7.8771  -13.1927    0.3789 H   0  0
    7.6120  -13.6696   -1.3300 H   0  0
    5.5764  -13.0438    0.8494 H   0  0
    5.5324  -12.5106   -0.8318 H   0  0
    3.9964  -14.5993    0.0445 H   0  0
    4.7552  -14.6890   -1.5784 H   0  0
  1  2  2  0
  1 13  1  0
  2  3  1  0
  2 23  1  0
  3  4  2  0
  3 12  1  0
  4  5  1  0
  5  6  2  0
  5  7  1  0
  6  1  1  0
  7  8  1  0
  8  9  1  0
  8 24  1  0
  8 25  1  0
  9 10  1  0
  9 11  2  0
 10 26  1  0
 13 14  1  0
 13 27  1  0
 14 19  2  0
 15 16  1  0
 15 28  1  0
 16 17  2  0
 16 29  1  0
 17 14  1  0
 17 30  1  0
 18 15  2  0
 18 19  1  0
 19 20  1  0
 20 21  1  0
 20 31  1  0
 20 32  1  0
 21 22  1  0
 21 33  1  0
 21 34  1  0
 22 18  1  0
 22 35  1  0
 22 36  1  0
M  END
> <Name>
CHEMBL459521

> <Clean Energy>
19.450001

> <chembl_id>
CHEMBL459521

> <chembl_pref_name>
None

> <efficacy>
0.16

> <Forcefield>
MMFF

> <ForcefieldBase>
MMFF

> <ForcefieldFFML>
<?xml version="1.0" encoding="UTF-8"?>
<!DOCTYPE ffml SYSTEM "Ffml.dtd">
<ffml version="1.0">
<forcefield name="MMFF" derivedFrom="MMFF" base="MMFF">
<atomTypes>
<atomType
name="C100"
element="C"
mass="12.011"
annotation=""/>
<atomType
name="N101"
element="N"
mass="14.007"
annotation=""/>
<atomType
name="S102"
element="S"
mass="32.066"
annotation=""/>
<atomType
name="O103"
element="O"
mass="16"
annotation=""/>
<atomType
name="Cl104"
element="Cl"
mass="35.453"
annotation=""/>
<atomType
name="H105"
element="H"
mass="1.008"
annotation=""/>
</atomTypes>
<parameters>
</parameters>
</forcefield>
</ffml>

> <Initial Potential Energy>
3.64125

> <Initial RMS Gradient>
39.02261

> <Minimization Criteria>
CONJUG> Minimization exiting with gradient tolerance ( 0.0100000) satisfied.

> <CHARMm Energy>
-82.75757

> <Potential Energy>
-82.75757

> <RMS Gradient>
0.00883

> <Bond Energy>
2.28419

> <Angle Energy>
19.21743

> <STRBend>
-0.67323

> <Dihedral Energy>
2.90768

> <OOPLane>
0.10448

> <Van der Waals Energy>
35.22843

> <Electrostatic Energy>
-141.82657

> <Hydrogen Bond Energy>
0

> <Solvation Free Energy>
0

> <HasGasteigerCharges>
true

> <REMARK99>
REMARK  99  MacroMolecule created from Mol2 file
REMARK  99  CHEMBL459521
REMARK  99  PROTEIN
REMARK  99  GASTEIGER
REMARK  99
REMARK  99

$$$$
CHEMBL1641710
  SciTegic05292516403D

 49 51  0  0  0  0            999 V2000
   -0.0352   -5.0566    0.5682 C   0  0
   -0.2648   -6.2305   -0.1530 C   0  0
    0.7586   -6.7621   -0.9438 C   0  0
    2.0019   -6.1304   -1.0182 C   0  0
    2.2236   -4.9447   -0.3113 C   0  0
    1.2083   -4.4171    0.4947 C   0  0
   -1.4268   -6.9506   -0.1675 O   0  0
   -2.4773   -6.4951    0.6754 C   0  0
    3.5649   -4.3106   -0.3850 C   0  0
    4.5507   -5.0467   -0.3257 O   0  0
    3.7018   -2.8591   -0.5161 C   0  0
    4.8730   -2.1390   -0.2765 N   0  0
    4.6418   -0.8043   -0.5145 C   0  0
    3.3440   -0.6478   -0.9279 C   0  0
    2.7601   -1.9315   -0.9418 C   0  0
    6.1399   -2.7492    0.1613 C   0  0
    7.2794   -1.8037    0.4508 C   0  0
    8.4862   -1.9159   -0.1341 C   0  0
    9.6653   -1.0715    0.1250 C   0  0
   10.9437   -1.6301   -0.0504 C   0  0
   12.1186   -0.8666    0.1000 C   0  0
   11.9896    0.4905    0.4120 C   0  0
   10.7265    1.0571    0.5993 C   0  0
    9.5719    0.2831    0.4538 C   0  0
   13.4479   -1.5355   -0.1799 C   0  0
   14.7031   -0.8037    0.2262 C   0  0
   14.8241   -0.5527    1.5543 O   0  0
   15.5950   -0.4993   -0.5559 O   0  0
   -0.7989   -4.6175    1.2019 H   0  0
    0.5850   -7.6816   -1.4991 H   0  0
    2.7974   -6.5610   -1.6229 H   0  0
    1.3828   -3.5197    1.0842 H   0  0
   -3.3162   -7.1898    0.5687 H   0  0
   -2.8259   -5.5031    0.3699 H   0  0
   -2.1720   -6.5012    1.7272 H   0  0
    5.4263   -0.0678   -0.3938 H   0  0
    2.8639    0.2829   -1.2074 H   0  0
    1.7465   -2.1550   -1.2501 H   0  0
    5.9103   -3.3030    1.0789 H   0  0
    6.4219   -3.4550   -0.6283 H   0  0
    7.0994   -1.0479    1.2102 H   0  0
    8.6415   -2.7125   -0.8619 H   0  0
   11.0249   -2.6808   -0.3299 H   0  0
   12.8612    1.1394    0.4929 H   0  0
   10.6417    2.1164    0.8336 H   0  0
    8.6031    0.7619    0.5683 H   0  0
   13.4798   -2.5167    0.3099 H   0  0
   13.5114   -1.7119   -1.2612 H   0  0
   14.0203   -0.8308    2.0423 H   0  0
  1  2  2  0
  1 29  1  0
  2  3  1  0
  2  7  1  0
  3  4  2  0
  3 30  1  0
  4  5  1  0
  4 31  1  0
  5  6  2  0
  5  9  1  0
  6  1  1  0
  6 32  1  0
  7  8  1  0
  8 33  1  0
  8 34  1  0
  8 35  1  0
  9 10  2  0
  9 11  1  0
 11 12  1  0
 12 13  1  0
 12 16  1  0
 13 14  2  0
 13 36  1  0
 14 15  1  0
 14 37  1  0
 15 11  2  0
 15 38  1  0
 16 17  1  0
 16 39  1  0
 16 40  1  0
 17 18  2  0
 17 41  1  0
 18 19  1  0
 18 42  1  0
 19 20  2  0
 20 21  1  0
 20 43  1  0
 21 22  2  0
 21 25  1  0
 22 23  1  0
 22 44  1  0
 23 24  2  0
 23 45  1  0
 24 19  1  0
 24 46  1  0
 25 26  1  0
 25 47  1  0
 25 48  1  0
 26 27  1  0
 26 28  2  0
 27 49  1  0
M  END
> <Name>
CHEMBL1641710

> <Clean Energy>
22.240601

> <chembl_id>
CHEMBL1641710

> <chembl_pref_name>
None

> <efficacy>
0.351377018

> <Forcefield>
MMFF

> <ForcefieldBase>
MMFF

> <ForcefieldFFML>
<?xml version="1.0" encoding="UTF-8"?>
<!DOCTYPE ffml SYSTEM "Ffml.dtd">
<ffml version="1.0">
<forcefield name="MMFF" derivedFrom="MMFF" base="MMFF">
<atomTypes>
<atomType
name="C100"
element="C"
mass="12.011"
annotation=""/>
<atomType
name="O101"
element="O"
mass="16"
annotation=""/>
<atomType
name="N102"
element="N"
mass="14.007"
annotation=""/>
<atomType
name="H103"
element="H"
mass="1.008"
annotation=""/>
</atomTypes>
<parameters>
</parameters>
</forcefield>
</ffml>

> <Initial Potential Energy>
187.86702

> <Initial RMS Gradient>
29.71006

> <Minimization Criteria>
STEEPD> Minimization exiting with gradient tolerance ( 3.0000000) satisfied.

> <CHARMm Energy>
74.88996

> <Potential Energy>
74.88996

> <RMS Gradient>
0.05135

> <Bond Energy>
5.93617

> <Angle Energy>
14.9847

> <STRBend>
0.63698

> <Dihedral Energy>
3.94268

> <OOPLane>
0.18809

> <Van der Waals Energy>
51.60458

> <Electrostatic Energy>
-2.40322

> <Hydrogen Bond Energy>
0

> <Solvation Free Energy>
0

> <HasGasteigerCharges>
true

> <REMARK99>
REMARK  99  MacroMolecule created from Mol2 file
REMARK  99  CHEMBL1641710
REMARK  99  PROTEIN
REMARK  99  GASTEIGER
REMARK  99
REMARK  99

$$$$
CHEMBL1819397
  SciTegic05292516403D

 65 67  0  0  0  0            999 V2000
   -2.2404  -19.0166    0.9329 C   0  0
   -1.5589  -19.7737   -0.0179 C   0  0
   -0.7032  -19.1421   -0.9182 C   0  0
   -0.5686  -17.7460   -0.9158 C   0  0
   -1.3251  -16.9745   -0.0105 C   0  0
   -2.1300  -17.6230    0.9323 C   0  0
   -1.2082  -15.6079   -0.1050 O   0  0
   -2.2535  -14.8329    0.5043 C   0  0
   -1.6564  -21.1363   -0.1232 O   0  0
   -2.9829  -21.6292    0.1061 C   0  0
   -3.1364  -22.9712   -0.6079 C   0  0
   -2.1340  -13.3912    0.0065 C   0  0
    0.3315  -17.1105   -1.8908 C   0  0
    1.6797  -17.1421   -1.8390 C   0  0
    2.4458  -16.3825   -2.8670 C   0  0
    1.9885  -15.1140   -3.0011 O   0  0
    3.4268  -16.8088   -3.4542 O   0  0
    2.5280  -17.8963   -0.8458 C   0  0
    3.1278  -16.9598    0.2082 C   0  0
    3.9731  -17.7341    1.2200 C   0  0
    4.5695  -16.8104    2.2700 C   0  0
   -3.1083  -12.3719    0.5583 C   0  0
   -2.8838  -11.0204    0.2448 C   0  0
   -3.7457  -10.0200    0.6996 C   0  0
   -4.8508  -10.3567    1.4742 C   0  0
   -5.0973  -11.6902    1.7933 C   0  0
   -4.2323  -12.6931    1.3348 C   0  0
   -4.5721  -23.4313   -0.6007 C   0  0
   -5.4803  -22.8915   -1.5254 C   0  0
   -6.8224  -23.2616   -1.4988 C   0  0
   -7.2708  -24.1732   -0.5456 C   0  0
   -6.3759  -24.7152    0.3754 C   0  0
   -5.0292  -24.3490    0.3490 C   0  0
   -2.8648  -19.4929    1.6834 H   0  0
   -0.1533  -19.7451   -1.6374 H   0  0
   -2.6837  -17.0730    1.6864 H   0  0
   -3.2350  -15.2339    0.2218 H   0  0
   -2.1358  -14.8590    1.5941 H   0  0
   -3.1411  -21.7614    1.1835 H   0  0
   -3.7309  -20.9231   -0.2798 H   0  0
   -2.7811  -22.8922   -1.6436 H   0  0
   -2.4855  -23.7204   -0.1400 H   0  0
   -1.1131  -13.0456    0.2196 H   0  0
   -2.2262  -13.3955   -1.0880 H   0  0
   -0.1944  -16.5653   -2.6728 H   0  0
    1.2652  -14.9125   -2.3753 H   0  0
    1.9499  -18.6766   -0.3404 H   0  0
    3.3305  -18.4259   -1.3746 H   0  0
    3.7499  -16.1972   -0.2769 H   0  0
    2.3228  -16.4303    0.7337 H   0  0
    3.3573  -18.4927    1.7170 H   0  0
    4.7831  -18.2610    0.7024 H   0  0
    5.1700  -17.3844    2.9826 H   0  0
    3.7835  -16.2918    2.8281 H   0  0
    5.2171  -16.0583    1.8083 H   0  0
   -2.0265  -10.7350   -0.3629 H   0  0
   -3.5497   -8.9819    0.4437 H   0  0
   -5.5226   -9.5792    1.8273 H   0  0
   -5.9675  -11.9409    2.3986 H   0  0
   -4.4622  -13.7231    1.5955 H   0  0
   -5.1409  -22.1666   -2.2644 H   0  0
   -7.5236  -22.8466   -2.2185 H   0  0
   -8.3166  -24.4679   -0.5243 H   0  0
   -6.7259  -25.4301    1.1151 H   0  0
   -4.3552  -24.8019    1.0739 H   0  0
  1  2  2  0
  1 34  1  0
  2  3  1  0
  2  9  1  0
  3  4  2  0
  3 35  1  0
  4  5  1  0
  4 13  1  0
  5  6  2  0
  5  7  1  0
  6  1  1  0
  6 36  1  0
  7  8  1  0
  8 12  1  0
  8 37  1  0
  8 38  1  0
  9 10  1  0
 10 11  1  0
 10 39  1  0
 10 40  1  0
 11 28  1  0
 11 41  1  0
 11 42  1  0
 12 22  1  0
 12 43  1  0
 12 44  1  0
 13 14  2  0
 13 45  1  0
 14 15  1  0
 14 18  1  0
 15 16  1  0
 15 17  2  0
 16 46  1  0
 18 19  1  0
 18 47  1  0
 18 48  1  0
 19 20  1  0
 19 49  1  0
 19 50  1  0
 20 21  1  0
 20 51  1  0
 20 52  1  0
 21 53  1  0
 21 54  1  0
 21 55  1  0
 22 23  2  0
 23 24  1  0
 23 56  1  0
 24 25  2  0
 24 57  1  0
 25 26  1  0
 25 58  1  0
 26 27  2  0
 26 59  1  0
 27 22  1  0
 27 60  1  0
 28 29  2  0
 29 30  1  0
 29 61  1  0
 30 31  2  0
 30 62  1  0
 31 32  1  0
 31 63  1  0
 32 33  2  0
 32 64  1  0
 33 28  1  0
 33 65  1  0
M  END
> <Name>
CHEMBL1819397

> <Clean Energy>
10.0409

> <chembl_id>
CHEMBL1819397

> <chembl_pref_name>
None

> <efficacy>
0.44634378

> <Forcefield>
MMFF

> <ForcefieldBase>
MMFF

> <ForcefieldFFML>
<?xml version="1.0" encoding="UTF-8"?>
<!DOCTYPE ffml SYSTEM "Ffml.dtd">
<ffml version="1.0">
<forcefield name="MMFF" derivedFrom="MMFF" base="MMFF">
<atomTypes>
<atomType
name="C100"
element="C"
mass="12.011"
annotation=""/>
<atomType
name="O101"
element="O"
mass="16"
annotation=""/>
<atomType
name="H102"
element="H"
mass="1.008"
annotation=""/>
</atomTypes>
<parameters>
</parameters>
</forcefield>
</ffml>

> <Initial Potential Energy>
144.29817

> <Initial RMS Gradient>
26.83978

> <Minimization Criteria>
CONJUG> Minimization exiting with gradient tolerance ( 0.0100000) satisfied.

> <CHARMm Energy>
62.80761

> <Potential Energy>
62.80761

> <RMS Gradient>
0.00924

> <Bond Energy>
6.28225

> <Angle Energy>
14.77012

> <STRBend>
0.65335

> <Dihedral Energy>
4.48843

> <OOPLane>
0.19118

> <Van der Waals Energy>
69.66508

> <Electrostatic Energy>
-33.2428

> <Hydrogen Bond Energy>
0

> <Solvation Free Energy>
0

> <HasGasteigerCharges>
true

> <REMARK99>
REMARK  99  MacroMolecule created from Mol2 file
REMARK  99  CHEMBL1819397
REMARK  99  PROTEIN
REMARK  99  GASTEIGER
REMARK  99
REMARK  99

$$$$
CHEMBL1092559
  SciTegic05292516403D

 56 60  0  0  0  0            999 V2000
   13.8820    2.5168   -1.1986 C   0  0
   12.7570    3.3377   -1.0992 C   0  0
   11.4667    1.4067   -0.4408 C   0  0
   11.5533    2.7857   -0.7106 C   0  0
   10.1740    1.0496   -0.0983 O   0  0
    9.4198    2.2207   -0.0651 C   0  0
   10.1774    3.3889   -0.6570 C   0  0  1  0  0  0
    9.9187    4.5737    0.2856 C   0  0
    8.4791    4.8078    0.6771 C   0  0
    7.7158    3.6969    0.7930 C   0  0
    8.2618    2.3643    0.5965 C   0  0
    6.3903    3.6896    1.1731 O   0  0
    7.8888    6.1598    0.9305 C   0  0
    8.7616    7.3781    0.7894 C   0  0
    6.6968    6.2669    1.2384 O   0  0
   10.8016    5.3171    0.7062 O   0  0
    9.6893    3.7252   -2.0748 C   0  0
   12.8095    4.6556   -1.4315 O   0  0
   13.7838    1.1362   -0.9359 C   0  0
   12.5688    0.5617   -0.5637 C   0  0
   12.4960   -0.9109   -0.4483 C   0  0
   13.6809   -1.5968   -0.6826 N   0  0
   14.9236   -0.8947   -0.5378 C   0  0  1  0  0  0
   14.9214    0.4051   -1.1404 O   0  0
   11.4298   -1.4354   -0.1454 O   0  0
   13.6539   -2.9590   -0.9142 C   0  0
   14.7192   -3.6586   -0.4045 N   0  0
   12.7780   -3.4881   -1.5927 O   0  0
   14.8612   -5.0801   -0.6064 C   0  0
   15.2479   -0.8498    0.8524 O   0  0
   16.6408   -0.6665    1.0662 C   0  0
   16.1535   -5.5138   -0.0198 C   0  0
   17.0840   -6.4668   -0.3805 C   0  0
   18.1074   -6.4200    0.5973 C   0  0
   17.7388   -5.4420    1.4909 C   0  0
   16.5574   -4.8818    1.1252 O   0  0
   14.8356    2.9278   -1.5191 H   0  0
    7.7750    1.5155    1.0671 H   0  0
    6.0850    4.6171    1.3144 H   0  0
    8.1341    8.2745    0.8130 H   0  0
    9.2847    7.3643   -0.1701 H   0  0
    9.4696    7.4283    1.6200 H   0  0
    8.6352    4.0254   -2.0895 H   0  0
    9.7949    2.8727   -2.7570 H   0  0
   10.2607    4.5592   -2.4990 H   0  0
   13.7406    4.9310   -1.4790 H   0  0
   15.6986   -1.4620   -1.0687 H   0  0
   15.1445   -3.2792    0.4335 H   0  0
   14.0241   -5.5866   -0.1149 H   0  0
   14.8157   -5.2917   -1.6796 H   0  0
   16.8170   -0.6067    2.1435 H   0  0
   16.9846    0.2642    0.6049 H   0  0
   17.2050   -1.5166    0.6703 H   0  0
   17.0227   -7.1184   -1.2411 H   0  0
   19.0000   -7.0282    0.6486 H   0  0
   18.1809   -5.0463    2.3945 H   0  0
  1  2  2  0
  1 37  1  0
  2  4  1  0
  2 18  1  0
  3  4  2  0
  3 20  1  0
  4  7  1  0
  5  3  1  0
  6  5  1  0
  6  7  1  0
  7  8  1  0
  7 17  1  0
  8  9  1  0
  8 16  2  0
  9 10  2  0
  9 13  1  0
 10 11  1  0
 10 12  1  0
 11  6  2  0
 11 38  1  0
 12 39  1  0
 13 14  1  0
 13 15  2  0
 14 40  1  0
 14 41  1  0
 14 42  1  0
 17 43  1  0
 17 44  1  0
 17 45  1  0
 18 46  1  0
 19  1  1  0
 19 20  2  0
 19 24  1  0
 20 21  1  0
 21 22  1  0
 21 25  2  0
 22 23  1  0
 22 26  1  0
 23 24  1  0
 23 30  1  0
 23 47  1  0
 26 27  1  0
 26 28  2  0
 27 29  1  0
 27 48  1  0
 29 32  1  0
 29 49  1  0
 29 50  1  0
 30 31  1  0
 31 51  1  0
 31 52  1  0
 31 53  1  0
 32 33  2  0
 33 34  1  0
 33 54  1  0
 34 35  2  0
 34 55  1  0
 35 36  1  0
 35 56  1  0
 36 32  1  0
M  END
> <Name>
CHEMBL1092559

> <Clean Energy>
83.1371

> <chembl_id>
CHEMBL1092559

> <chembl_pref_name>
None

> <efficacy>
0.357894737

> <Forcefield>
MMFF

> <ForcefieldBase>
MMFF

> <ForcefieldFFML>
<?xml version="1.0" encoding="UTF-8"?>
<!DOCTYPE ffml SYSTEM "Ffml.dtd">
<ffml version="1.0">
<forcefield name="MMFF" derivedFrom="MMFF" base="MMFF">
<atomTypes>
<atomType
name="C100"
element="C"
mass="12.011"
annotation=""/>
<atomType
name="O101"
element="O"
mass="16"
annotation=""/>
<atomType
name="N102"
element="N"
mass="14.007"
annotation=""/>
<atomType
name="H103"
element="H"
mass="1.008"
annotation=""/>
</atomTypes>
<parameters>
</parameters>
</forcefield>
</ffml>

> <Initial Potential Energy>
22.97832

> <Initial RMS Gradient>
24.31125

> <Minimization Criteria>
CONJUG> Minimization exiting with gradient tolerance ( 0.0100000) satisfied.

> <CHARMm Energy>
-64.32594

> <Potential Energy>
-64.32594

> <RMS Gradient>
0.00988

> <Bond Energy>
5.26483

> <Angle Energy>
27.36662

> <STRBend>
0.10749

> <Dihedral Energy>
18.0408

> <OOPLane>
1.04285

> <Van der Waals Energy>
55.96424

> <Electrostatic Energy>
-172.11278

> <Hydrogen Bond Energy>
0

> <Solvation Free Energy>
0

> <HasGasteigerCharges>
true

> <REMARK99>
REMARK  99  MacroMolecule created from Mol2 file
REMARK  99  CHEMBL1092559
REMARK  99  PROTEIN
REMARK  99  GASTEIGER
REMARK  99
REMARK  99

$$$$
CHEMBL602468
  SciTegic05292516403D

 71 75  0  0  0  0            999 V2000
   -2.6271   -7.5532    0.1738 C   0  0
   -1.3556   -7.9217    0.6394 C   0  0
   -1.8409   -5.3158   -0.3119 C   0  0
   -2.8799   -6.2562   -0.2791 C   0  0
   -0.5504   -5.6653    0.1544 C   0  0
   -0.3271   -6.9583    0.6374 C   0  0
    0.9962   -7.0146    1.0641 N   0  0
    1.6004   -5.7811    0.8827 C   0  0
    0.6781   -4.9457    0.2688 C   0  0
    1.6063   -8.1677    1.7427 C   0  0
    2.8872   -8.6787    1.1150 C   0  0
    3.0020   -5.4808    1.2965 C   0  0
    3.9563   -9.0842    1.9340 C   0  0
    5.1478   -9.5803    1.3828 C   0  0
    5.2985   -9.6809   -0.0073 C   0  0
    4.2161   -9.2981   -0.8210 C   0  0
    3.0241   -8.8158   -0.2707 C   0  0
    6.5374  -10.2080   -0.6088 C   0  0
    6.4572  -11.4059   -1.3520 C   0  0
    7.5837  -11.9857   -1.9397 C   0  0
    8.8284  -11.3906   -1.7894 C   0  0
    8.9435  -10.2150   -1.0526 C   0  0
    7.8108   -9.6135   -0.4715 C   0  0
    8.0847   -8.3586    0.2675 C   0  0
    7.1247   -7.4270    0.1323 O   0  0
    9.1155   -8.1166    0.8732 O   0  0
   -4.2277   -5.8188   -0.7431 C   0  0
   -4.3442   -4.9450   -1.5961 O   0  0
   -5.3092   -6.4132   -0.1279 N   0  0
   -6.6802   -6.0610   -0.4615 C   0  0  1  0  0  0
   -7.5228   -7.3293   -0.4823 C   0  0
   -7.8083   -7.9446   -1.7128 C   0  0
   -8.5737   -9.1109   -1.7693 C   0  0
   -9.0538   -9.6869   -0.5959 C   0  0
   -8.7662   -9.0999    0.6339 C   0  0
   -8.0002   -7.9332    0.6924 C   0  0
   -7.2448   -4.9954    0.5027 C   0  0
   -6.6118   -3.6210    0.3258 C   0  0
    0.9047   -3.5363   -0.1526 C   0  0
   -3.4131   -8.3061    0.1551 H   0  0
   -1.1799   -8.9349    0.9869 H   0  0
   -2.0423   -4.3093   -0.6762 H   0  0
    1.7784   -7.8403    2.7754 H   0  0
    0.8840   -8.9879    1.7724 H   0  0
    3.1613   -4.4009    1.3822 H   0  0
    3.7122   -5.8635    0.5575 H   0  0
    3.2344   -5.9133    2.2742 H   0  0
    3.8773   -9.0119    3.0171 H   0  0
    5.9597   -9.8866    2.0442 H   0  0
    4.3032   -9.3657   -1.9043 H   0  0
    2.2109   -8.5316   -0.9377 H   0  0
    5.5038  -11.9179   -1.4679 H   0  0
    7.4794  -12.9067   -2.5070 H   0  0
    9.7082  -11.8378   -2.2415 H   0  0
    9.9244   -9.7566   -0.9361 H   0  0
    7.5120   -6.6544    0.5958 H   0  0
   -5.1676   -7.0752    0.6203 H   0  0
   -6.6949   -5.6290   -1.4707 H   0  0
   -7.4328   -7.5143   -2.6398 H   0  0
   -8.8021   -9.5648   -2.7307 H   0  0
   -9.6579  -10.5896   -0.6413 H   0  0
   -9.1453   -9.5467    1.5494 H   0  0
   -7.7859   -7.5020    1.6668 H   0  0
   -8.3252   -4.8922    0.3384 H   0  0
   -7.1084   -5.3033    1.5465 H   0  0
   -6.7010   -3.2754   -0.7088 H   0  0
   -5.5535   -3.6296    0.6020 H   0  0
   -7.1145   -2.8919    0.9695 H   0  0
    0.1944   -3.2298   -0.9267 H   0  0
    1.9111   -3.4080   -0.5641 H   0  0
    0.7919   -2.8634    0.7034 H   0  0
  1  2  2  0
  1 40  1  0
  2  6  1  0
  2 41  1  0
  3  4  2  0
  3 42  1  0
  4  1  1  0
  4 27  1  0
  5  3  1  0
  5  6  2  0
  6  7  1  0
  7  8  1  0
  7 10  1  0
  8  9  2  0
  8 12  1  0
  9  5  1  0
  9 39  1  0
 10 11  1  0
 10 43  1  0
 10 44  1  0
 11 13  2  0
 12 45  1  0
 12 46  1  0
 12 47  1  0
 13 14  1  0
 13 48  1  0
 14 15  2  0
 14 49  1  0
 15 16  1  0
 15 18  1  0
 16 17  2  0
 16 50  1  0
 17 11  1  0
 17 51  1  0
 18 19  2  0
 19 20  1  0
 19 52  1  0
 20 21  2  0
 20 53  1  0
 21 22  1  0
 21 54  1  0
 22 23  2  0
 22 55  1  0
 23 18  1  0
 23 24  1  0
 24 25  1  0
 24 26  2  0
 25 56  1  0
 27 28  2  0
 27 29  1  0
 29 30  1  0
 29 57  1  0
 30 31  1  0
 30 37  1  0
 30 58  1  0
 31 32  2  0
 32 33  1  0
 32 59  1  0
 33 34  2  0
 33 60  1  0
 34 35  1  0
 34 61  1  0
 35 36  2  0
 35 62  1  0
 36 31  1  0
 36 63  1  0
 37 38  1  0
 37 64  1  0
 37 65  1  0
 38 66  1  0
 38 67  1  0
 38 68  1  0
 39 69  1  0
 39 70  1  0
 39 71  1  0
M  END
> <Name>
CHEMBL602468

> <Clean Energy>
76.492104

> <chembl_id>
CHEMBL602468

> <chembl_pref_name>
None

> <efficacy>
0.31

> <Forcefield>
MMFF

> <ForcefieldBase>
MMFF

> <ForcefieldFFML>
<?xml version="1.0" encoding="UTF-8"?>
<!DOCTYPE ffml SYSTEM "Ffml.dtd">
<ffml version="1.0">
<forcefield name="MMFF" derivedFrom="MMFF" base="MMFF">
<atomTypes>
<atomType
name="C100"
element="C"
mass="12.011"
annotation=""/>
<atomType
name="N101"
element="N"
mass="14.007"
annotation=""/>
<atomType
name="O102"
element="O"
mass="16"
annotation=""/>
<atomType
name="H103"
element="H"
mass="1.008"
annotation=""/>
</atomTypes>
<parameters>
</parameters>
</forcefield>
</ffml>

> <Initial Potential Energy>
368.60953

> <Initial RMS Gradient>
39.217

> <Minimization Criteria>
CONJUG> Minimization exiting with gradient tolerance ( 0.0100000) satisfied.

> <CHARMm Energy>
83.51649

> <Potential Energy>
83.51649

> <RMS Gradient>
0.00972

> <Bond Energy>
11.10642

> <Angle Energy>
13.71506

> <STRBend>
0.04696

> <Dihedral Energy>
9.44636

> <OOPLane>
0.2775

> <Van der Waals Energy>
77.70682

> <Electrostatic Energy>
-28.78263

> <Hydrogen Bond Energy>
0

> <Solvation Free Energy>
0

> <HasGasteigerCharges>
true

> <REMARK99>
REMARK  99  MacroMolecule created from Mol2 file
REMARK  99  CHEMBL602468
REMARK  99  PROTEIN
REMARK  99  GASTEIGER
REMARK  99
REMARK  99

$$$$
CHEMBL452051
  SciTegic05292516403D

 58 61  0  0  0  0            999 V2000
   -4.6176    1.7872   -0.4171 C   0  0
   -4.8948    0.4775   -0.7916 C   0  0
   -3.9911   -0.5516   -0.4896 C   0  0
   -3.4367    2.0866    0.2707 C   0  0
   -2.5386    1.0512    0.5781 C   0  0
   -2.7918   -0.2651    0.1993 C   0  0
   -1.6758   -1.0552    0.6160 C   0  0
   -0.8225   -0.2219    1.3376 C   0  0
   -1.3262    1.0649    1.2466 N   0  0
   -5.3902    2.8827   -0.6739 O   0  0
   -6.7489    2.6539   -1.0183 C   0  0
   -6.8579    2.0989   -2.2462 F   0  0
   -7.3670    1.8634   -0.1140 F   0  0
   -7.4006    3.8412   -1.0432 F   0  0
    0.4108   -0.5657    2.1062 C   0  0
   -0.7246    2.2694    1.8200 C   0  0
    0.2909    2.8881    0.8914 C   0  0
    1.6591    2.6308    1.0601 C   0  0
    2.6155    3.1821    0.2011 C   0  0
    2.2012    4.0165   -0.8337 C   0  0
    0.8430    4.2863   -1.0125 C   0  0
   -0.1056    3.7235   -0.1598 C   0  0
   -1.5138   -2.4871    0.3770 C   0  0
   -2.4502   -3.2762    0.4858 O   0  0
   -0.1819   -3.0118   -0.0345 C   0  0
    0.1800   -4.2968    0.3883 C   0  0
    1.4132   -4.8356    0.0212 C   0  0
    2.2857   -4.0947   -0.7736 C   0  0
    1.9307   -2.8188   -1.2114 C   0  0
    0.6930   -2.2768   -0.8483 C   0  0
    3.8072   -4.7534   -1.2216 Cl  0  0
    3.8981    2.8177    0.4951 O   0  0
    4.9763    3.3391   -0.3001 C   0  0  2  0  0  0
    6.1508    2.3723   -0.1605 C   0  0
    5.3969    4.7077    0.2186 C   0  0
    5.8930    1.2984    0.6249 O   0  0
    7.2443    2.5449   -0.6848 O   0  0
   -5.8019    0.2035   -1.3265 H   0  0
   -4.2249   -1.5748   -0.7811 H   0  0
   -3.2263    3.1115    0.5579 H   0  0
    0.4829    0.0008    3.0385 H   0  0
    1.3038   -0.3713    1.5057 H   0  0
    0.4156   -1.6222    2.3915 H   0  0
   -1.5195    2.9861    2.0522 H   0  0
   -0.2780    2.0084    2.7847 H   0  0
    1.9927    1.9930    1.8758 H   0  0
    2.8937    4.4853   -1.5229 H   0  0
    0.5229    4.9401   -1.8216 H   0  0
   -1.1556    3.9499   -0.3273 H   0  0
   -0.4999   -4.8750    1.0087 H   0  0
    1.6823   -5.8333    0.3569 H   0  0
    2.6131   -2.2505   -1.8397 H   0  0
    0.4200   -1.2884   -1.2116 H   0  0
    4.7183    3.3446   -1.3648 H   0  0
    6.2474    5.1023   -0.3465 H   0  0
    5.6858    4.6524    1.2747 H   0  0
    4.5763    5.4286    0.1545 H   0  0
    4.9696    1.3627    0.9553 H   0  0
  1  2  2  0
  1 10  1  0
  2  3  1  0
  2 38  1  0
  3  6  2  0
  3 39  1  0
  4  1  1  0
  4 40  1  0
  5  4  2  0
  5  6  1  0
  6  7  1  0
  7  8  2  0
  7 23  1  0
  8  9  1  0
  8 15  1  0
  9  5  1  0
  9 16  1  0
 10 11  1  0
 11 12  1  0
 11 13  1  0
 11 14  1  0
 15 41  1  0
 15 42  1  0
 15 43  1  0
 16 17  1  0
 16 44  1  0
 16 45  1  0
 17 18  2  0
 18 19  1  0
 18 46  1  0
 19 20  2  0
 19 32  1  0
 20 21  1  0
 20 47  1  0
 21 22  2  0
 21 48  1  0
 22 17  1  0
 22 49  1  0
 23 24  2  0
 23 25  1  0
 25 26  2  0
 26 27  1  0
 26 50  1  0
 27 28  2  0
 27 51  1  0
 28 29  1  0
 28 31  1  0
 29 30  2  0
 29 52  1  0
 30 25  1  0
 30 53  1  0
 32 33  1  0
 33 34  1  0
 33 35  1  0
 33 54  1  0
 34 36  1  0
 34 37  2  0
 35 55  1  0
 35 56  1  0
 35 57  1  0
 36 58  1  0
M  END
> <Name>
CHEMBL452051

> <Clean Energy>
97.828796

> <chembl_id>
CHEMBL452051

> <chembl_pref_name>
None

> <efficacy>
0.27

> <Forcefield>
MMFF

> <ForcefieldBase>
MMFF

> <ForcefieldFFML>
<?xml version="1.0" encoding="UTF-8"?>
<!DOCTYPE ffml SYSTEM "Ffml.dtd">
<ffml version="1.0">
<forcefield name="MMFF" derivedFrom="MMFF" base="MMFF">
<atomTypes>
<atomType
name="C100"
element="C"
mass="12.011"
annotation=""/>
<atomType
name="N101"
element="N"
mass="14.007"
annotation=""/>
<atomType
name="O102"
element="O"
mass="16"
annotation=""/>
<atomType
name="F103"
element="F"
mass="18.998"
annotation=""/>
<atomType
name="Cl104"
element="Cl"
mass="35.453"
annotation=""/>
<atomType
name="H105"
element="H"
mass="1.008"
annotation=""/>
</atomTypes>
<parameters>
</parameters>
</forcefield>
</ffml>

> <Initial Potential Energy>
693.77817

> <Initial RMS Gradient>
225.13191

> <Minimization Criteria>
STEEPD> Minimization exiting with gradient tolerance ( 3.0000000) satisfied.

> <CHARMm Energy>
114.28206

> <Potential Energy>
114.28206

> <RMS Gradient>
0.06306

> <Bond Energy>
6.77384

> <Angle Energy>
23.11052

> <STRBend>
-0.19113

> <Dihedral Energy>
6.95634

> <OOPLane>
0.04863

> <Van der Waals Energy>
65.61097

> <Electrostatic Energy>
11.97289

> <Hydrogen Bond Energy>
0

> <Solvation Free Energy>
0

> <HasGasteigerCharges>
true

> <REMARK99>
REMARK  99  MacroMolecule created from Mol2 file
REMARK  99  CHEMBL452051
REMARK  99  PROTEIN
REMARK  99  GASTEIGER
REMARK  99
REMARK  99

$$$$
CHEMBL1947142
  SciTegic05292516403D

 59 64  0  0  0  0            999 V2000
   -5.6153   -8.2966    0.2848 C   0  0
   -5.6617   -9.6720   -0.0322 C   0  0
   -4.4439  -10.3519   -0.2588 C   0  0
   -4.4002   -7.5899    0.3518 C   0  0
   -3.2174   -8.2697    0.0946 C   0  0
   -3.2501   -9.6406   -0.1940 C   0  0
   -1.9293  -10.0746   -0.4161 N   0  0
   -1.0627   -8.9561   -0.3344 C   0  0
   -1.8624   -7.8474    0.0397 N   0  0
    0.1270   -8.9906   -0.6073 O   0  0
   -1.4210   -6.5335    0.2303 C   0  0
   -1.5299  -11.3714   -0.9218 C   0  0
   -0.3482  -12.0209   -0.2207 C   0  0
   -0.4061  -12.4857    1.0971 C   0  0
    0.6972  -13.1296    1.6718 C   0  0
    1.8777  -13.3289    0.9446 C   0  0
    1.9824  -12.8713   -0.3738 C   0  0
    0.8563  -12.2201   -0.9353 C   0  0
   -1.5425   -4.3514    0.4264 O   0  0
   -2.2787   -5.4972    0.2765 N   0  0
   -0.2284   -4.6580    0.5076 C   0  0
   -0.0741   -6.0326    0.4058 C   0  0
    1.2447   -6.5214    0.5217 C   0  0
    2.3169   -5.6205    0.6878 C   0  0
    2.1008   -4.2421    0.7587 C   0  0
    0.8030   -3.7300    0.6776 C   0  0
    3.0753   -3.2919    0.9185 O   0  0
    4.4166   -3.7677    0.9341 C   0  0
   -6.9929  -10.4153   -0.1064 C   0  0
   -7.4306  -10.8102    1.1185 F   0  0
   -6.8765  -11.5544   -0.8491 F   0  0
   -7.9978   -9.6896   -0.6648 F   0  0
    3.2361  -13.0917   -1.2212 C   0  0  2  0  0  0
    4.5368  -13.2584   -0.4576 C   0  0
    5.2596  -12.1347   -0.6422 N   0  0
    4.6999  -11.3660   -1.5858 C   0  0
    3.4940  -11.8741   -1.9613 O   0  0
    4.9332  -14.2455    0.1498 O   0  0
    5.2226  -10.3787   -2.0758 O   0  0
    3.0545  -14.2386   -2.2119 C   0  0
   -1.8314  -12.3254    2.0584 Cl  0  0
   -6.5427   -7.7531    0.4733 H   0  0
   -4.4567  -11.4129   -0.4866 H   0  0
   -4.4299   -6.5305    0.5895 H   0  0
   -2.3700  -12.0732   -0.8963 H   0  0
   -1.2872  -11.2243   -1.9819 H   0  0
    0.6393  -13.4973    2.6947 H   0  0
    2.6997  -13.8544    1.4307 H   0  0
    0.9208  -11.8533   -1.9617 H   0  0
    1.4670   -7.5829    0.4957 H   0  0
    3.3187   -6.0398    0.7620 H   0  0
    0.6045   -2.6623    0.7452 H   0  0
    5.0754   -2.8988    1.0282 H   0  0
    4.6708   -4.2742   -0.0030 H   0  0
    4.5971   -4.4130    1.8003 H   0  0
    6.1666  -11.9556   -0.2532 H   0  0
    3.9551  -14.3771   -2.8219 H   0  0
    2.2340  -14.0371   -2.9100 H   0  0
    2.8459  -15.1840   -1.6992 H   0  0
  1  2  2  0
  1 42  1  0
  2  3  1  0
  2 29  1  0
  3  6  2  0
  3 43  1  0
  4  1  1  0
  4 44  1  0
  5  4  2  0
  5  6  1  0
  6  7  1  0
  7  8  1  0
  7 12  1  0
  8  9  1  0
  8 10  2  0
  9  5  1  0
  9 11  1  0
 11 22  1  0
 12 13  1  0
 12 45  1  0
 12 46  1  0
 13 14  2  0
 14 15  1  0
 14 41  1  0
 15 16  2  0
 15 47  1  0
 16 17  1  0
 16 48  1  0
 17 18  2  0
 17 33  1  0
 18 13  1  0
 18 49  1  0
 19 20  1  0
 20 11  2  0
 21 19  1  0
 21 22  2  0
 22 23  1  0
 23 24  2  0
 23 50  1  0
 24 25  1  0
 24 51  1  0
 25 26  2  0
 25 27  1  0
 26 21  1  0
 26 52  1  0
 27 28  1  0
 28 53  1  0
 28 54  1  0
 28 55  1  0
 29 30  1  0
 29 31  1  0
 29 32  1  0
 33 34  1  0
 33 40  1  0
 34 35  1  0
 34 38  2  0
 35 36  1  0
 35 56  1  0
 36 37  1  0
 36 39  2  0
 37 33  1  0
 40 57  1  0
 40 58  1  0
 40 59  1  0
M  END
> <Name>
CHEMBL1947142

> <Clean Energy>
106.654999

> <chembl_id>
CHEMBL1947142

> <chembl_pref_name>
None

> <efficacy>
0.28

> <Forcefield>
MMFF

> <ForcefieldBase>
MMFF

> <ForcefieldFFML>
<?xml version="1.0" encoding="UTF-8"?>
<!DOCTYPE ffml SYSTEM "Ffml.dtd">
<ffml version="1.0">
<forcefield name="MMFF" derivedFrom="MMFF" base="MMFF">
<atomTypes>
<atomType
name="C100"
element="C"
mass="12.011"
annotation=""/>
<atomType
name="N101"
element="N"
mass="14.007"
annotation=""/>
<atomType
name="O102"
element="O"
mass="16"
annotation=""/>
<atomType
name="F103"
element="F"
mass="18.998"
annotation=""/>
<atomType
name="Cl104"
element="Cl"
mass="35.453"
annotation=""/>
<atomType
name="H105"
element="H"
mass="1.008"
annotation=""/>
</atomTypes>
<parameters>
</parameters>
</forcefield>
</ffml>

> <Initial Potential Energy>
129.61141

> <Initial RMS Gradient>
32.01587

> <Minimization Criteria>
CONJUG> Minimization exiting with gradient tolerance ( 0.0100000) satisfied.

> <CHARMm Energy>
26.11373

> <Potential Energy>
26.11373

> <RMS Gradient>
0.00959

> <Bond Energy>
11.7267

> <Angle Energy>
43.37598

> <STRBend>
-2.03817

> <Dihedral Energy>
10.95262

> <OOPLane>
0.48069

> <Van der Waals Energy>
63.36616

> <Electrostatic Energy>
-101.75025

> <Hydrogen Bond Energy>
0

> <Solvation Free Energy>
0

> <HasGasteigerCharges>
true

> <REMARK99>
REMARK  99  MacroMolecule created from Mol2 file
REMARK  99  CHEMBL1947142
REMARK  99  PROTEIN
REMARK  99  GASTEIGER
REMARK  99
REMARK  99

$$$$
CHEMBL2204690
  SciTegic05292516403D

 53 55  0  0  0  0            999 V2000
   29.3156  -19.0252   -0.6272 C   0  0
   28.1626  -20.0609   -0.6844 C   0  0
   30.2993  -19.0286   -1.3574 O   0  0
   29.1588  -18.0928    0.3482 O   0  0
   27.6501  -20.0518   -2.1267 C   0  0
   27.1855  -19.5625    0.2541 O   0  0
   25.9871  -20.1535    0.5190 C   0  0
   25.4944  -21.3502    0.0104 C   0  0
   24.2321  -21.8262    0.3984 C   0  0
   23.4417  -21.1127    1.3056 C   0  0
   23.9321  -19.9058    1.8099 C   0  0
   25.1911  -19.4370    1.4203 C   0  0
   22.0744  -21.6120    1.7062 C   0  0
   20.9693  -21.0177    0.8336 C   0  0
   19.6978  -21.4749    1.3147 O   0  0
   18.5939  -20.9098    0.7340 C   0  0
   17.3843  -21.1888    1.3770 C   0  0
   16.1806  -20.6624    0.8972 C   0  0
   16.1875  -19.8685   -0.2491 C   0  0
   17.3921  -19.5844   -0.8956 C   0  0
   18.5937  -20.1090   -0.4113 C   0  0
   15.0643  -19.2603   -0.7622 O   0  0
   13.8839  -19.9656   -0.7543 C   0  0
   13.7730  -21.2515   -1.2882 C   0  0
   12.5320  -21.8909   -1.3016 C   0  0
   11.4045  -21.2399   -0.7980 C   0  0
   11.5138  -19.9468   -0.2847 C   0  0
   12.7533  -19.3063   -0.2694 C   0  0
   28.7847  -21.3879   -0.2418 C   0  0
   28.3039  -18.2545    0.8060 H   0  0
   26.8684  -20.7932   -2.3034 H   0  0
   28.4551  -20.2566   -2.8413 H   0  0
   27.2191  -19.0749   -2.3758 H   0  0
   26.0506  -21.9562   -0.6928 H   0  0
   23.8705  -22.7649   -0.0184 H   0  0
   23.3376  -19.3205    2.5088 H   0  0
   25.5487  -18.4948    1.8298 H   0  0
   22.0404  -22.7078    1.6553 H   0  0
   21.8868  -21.3741    2.7615 H   0  0
   21.0156  -19.9221    0.8837 H   0  0
   21.1102  -21.3433   -0.2046 H   0  0
   17.3694  -21.8129    2.2680 H   0  0
   15.2556  -20.8685    1.4296 H   0  0
   17.3768  -18.9553   -1.7826 H   0  0
   19.5091  -19.8726   -0.9466 H   0  0
   14.6444  -21.7536   -1.6995 H   0  0
   12.4407  -22.8925   -1.7139 H   0  0
   10.4357  -21.7353   -0.8166 H   0  0
   10.6308  -19.4364    0.0933 H   0  0
   12.8417  -18.2958    0.1194 H   0  0
   28.0983  -22.2314   -0.3326 H   0  0
   29.0875  -21.3396    0.8109 H   0  0
   29.6723  -21.6332   -0.8361 H   0  0
  1  2  1  0
  1  3  2  0
  1  4  1  0
  2  5  1  0
  2  6  1  0
  2 29  1  0
  4 30  1  0
  5 31  1  0
  5 32  1  0
  5 33  1  0
  6  7  1  0
  7  8  1  0
  7 12  2  0
  8  9  2  0
  8 34  1  0
  9 10  1  0
  9 35  1  0
 10 11  2  0
 10 13  1  0
 11 12  1  0
 11 36  1  0
 12 37  1  0
 13 14  1  0
 13 38  1  0
 13 39  1  0
 14 15  1  0
 14 40  1  0
 14 41  1  0
 15 16  1  0
 16 17  1  0
 16 21  2  0
 17 18  2  0
 17 42  1  0
 18 19  1  0
 18 43  1  0
 19 20  2  0
 19 22  1  0
 20 21  1  0
 20 44  1  0
 21 45  1  0
 22 23  1  0
 23 24  1  0
 23 28  2  0
 24 25  2  0
 24 46  1  0
 25 26  1  0
 25 47  1  0
 26 27  2  0
 26 48  1  0
 27 28  1  0
 27 49  1  0
 28 50  1  0
 29 51  1  0
 29 52  1  0
 29 53  1  0
M  END
> <Name>
CHEMBL2204690

> <Clean Energy>
28.869499

> <chembl_id>
CHEMBL2204690

> <chembl_pref_name>
None

> <efficacy>
0.12345679

> <Forcefield>
MMFF

> <ForcefieldBase>
MMFF

> <ForcefieldFFML>
<?xml version="1.0" encoding="UTF-8"?>
<!DOCTYPE ffml SYSTEM "Ffml.dtd">
<ffml version="1.0">
<forcefield name="MMFF" derivedFrom="MMFF" base="MMFF">
<atomTypes>
<atomType
name="C100"
element="C"
mass="12.011"
annotation=""/>
<atomType
name="O101"
element="O"
mass="16"
annotation=""/>
<atomType
name="H102"
element="H"
mass="1.008"
annotation=""/>
</atomTypes>
<parameters>
</parameters>
</forcefield>
</ffml>

> <Initial Potential Energy>
213.87989

> <Initial RMS Gradient>
38.88264

> <Minimization Criteria>
CONJUG> Minimization exiting with gradient tolerance ( 0.0100000) satisfied.

> <CHARMm Energy>
87.73085

> <Potential Energy>
87.73085

> <RMS Gradient>
0.00883

> <Bond Energy>
5.78674

> <Angle Energy>
25.88157

> <STRBend>
0.49124

> <Dihedral Energy>
7.85533

> <OOPLane>
0.10049

> <Van der Waals Energy>
65.06405

> <Electrostatic Energy>
-17.44856

> <Hydrogen Bond Energy>
0

> <Solvation Free Energy>
0

> <HasGasteigerCharges>
true

> <REMARK99>
REMARK  99  MacroMolecule created from Mol2 file
REMARK  99  CHEMBL2204690
REMARK  99  PROTEIN
REMARK  99  GASTEIGER
REMARK  99
REMARK  99

$$$$
CHEMBL2331774
  SciTegic05292516403D

 51 53  0  0  0  0            999 V2000
   36.1782   -6.9952   -0.3657 C   0  0
   34.9642   -6.2145   -0.0368 C   0  0
   34.1107   -6.5568    1.0193 C   0  0
   33.0796   -5.6955    1.3904 C   0  0
   32.8278   -4.5520    0.6295 C   0  0
   33.6100   -4.2580   -0.4914 C   0  0
   34.6818   -5.0915   -0.8189 C   0  0
   36.4653   -7.2493   -1.5286 O   0  0
   36.9564   -7.3489    0.7170 N   0  0
   38.1892   -8.1008    0.5779 C   0  0
   39.3683   -7.1890    0.2940 C   0  0
   32.5359   -1.7940   -0.9922 S   0  0
   33.3004   -3.2220   -1.4120 N   0  0
   30.8158   -2.2321   -0.8769 C   0  0
   30.0179   -1.8386    0.2052 C   0  0
   28.6873   -2.2730    0.2603 C   0  0
   28.1459   -3.0250   -0.7844 C   0  0
   28.9264   -3.3755   -1.8825 C   0  0
   30.2649   -2.9840   -1.9280 C   0  0
   34.2062   -7.7647    1.6797 O   0  0
   32.4515   -8.8922    0.4262 C   0  0
   33.7503   -8.8262    0.9269 C   0  0
   34.6246   -9.8680    0.6362 C   0  0
   34.1977  -10.8809   -0.2156 C   0  0
   32.9012  -10.8428   -0.7055 C   0  0
   32.0046   -9.8814   -0.3828 N   0  0
   35.2666  -12.1446   -0.6658 Cl  0  0
   33.0323   -1.3720    0.2980 O   0  0
   32.6481   -0.9400   -2.1552 O   0  0
   30.5489   -1.1119    1.2341 O   0  0
   29.8532    0.1066    1.4931 C   0  0
   26.3382   -3.5752   -0.7025 Br  0  0
   30.6078    0.9553    2.2392 F   0  0
   28.7090   -0.1072    2.1957 F   0  0
   29.5182    0.7723    0.3569 F   0  0
   32.4385   -5.9357    2.2352 H   0  0
   31.9945   -3.9260    0.9279 H   0  0
   35.3141   -4.8737   -1.6773 H   0  0
   36.6638   -7.0292    1.6349 H   0  0
   38.3457   -8.6426    1.5158 H   0  0
   38.0744   -8.8325   -0.2287 H   0  0
   40.2911   -7.7717    0.2155 H   0  0
   39.4937   -6.4519    1.0942 H   0  0
   39.2278   -6.6414   -0.6436 H   0  0
   33.8717   -3.1189   -2.2509 H   0  0
   28.0638   -2.0349    1.1185 H   0  0
   28.5041   -3.9553   -2.7008 H   0  0
   30.8730   -3.2663   -2.7856 H   0  0
   31.7129   -8.1297    0.6520 H   0  0
   35.6387   -9.8828    1.0252 H   0  0
   32.5303  -11.5860   -1.3997 H   0  0
  1  2  1  0
  1  8  2  0
  1  9  1  0
  2  3  1  0
  2  7  2  0
  3  4  2  0
  3 20  1  0
  4  5  1  0
  4 36  1  0
  5  6  2  0
  5 37  1  0
  6  7  1  0
  6 13  1  0
  7 38  1  0
  9 10  1  0
  9 39  1  0
 10 11  1  0
 10 40  1  0
 10 41  1  0
 11 42  1  0
 11 43  1  0
 11 44  1  0
 12 13  1  0
 12 14  1  0
 12 28  2  0
 12 29  2  0
 13 45  1  0
 14 15  1  0
 14 19  2  0
 15 16  2  0
 15 30  1  0
 16 17  1  0
 16 46  1  0
 17 18  2  0
 17 32  1  0
 18 19  1  0
 18 47  1  0
 19 48  1  0
 20 22  1  0
 21 22  1  0
 21 26  2  0
 21 49  1  0
 22 23  2  0
 23 24  1  0
 23 50  1  0
 24 25  2  0
 24 27  1  0
 25 26  1  0
 25 51  1  0
 30 31  1  0
 31 33  1  0
 31 34  1  0
 31 35  1  0
M  END
> <Name>
CHEMBL2331774

> <Clean Energy>
33.861698

> <chembl_id>
CHEMBL2331774

> <chembl_pref_name>
None

> <efficacy>
0.15

> <Forcefield>
MMFF

> <ForcefieldBase>
MMFF

> <ForcefieldFFML>
<?xml version="1.0" encoding="UTF-8"?>
<!DOCTYPE ffml SYSTEM "Ffml.dtd">
<ffml version="1.0">
<forcefield name="MMFF" derivedFrom="MMFF" base="MMFF">
<atomTypes>
<atomType
name="C100"
element="C"
mass="12.011"
annotation=""/>
<atomType
name="O101"
element="O"
mass="16"
annotation=""/>
<atomType
name="N102"
element="N"
mass="14.007"
annotation=""/>
<atomType
name="S103"
element="S"
mass="32.066"
annotation=""/>
<atomType
name="Cl104"
element="Cl"
mass="35.453"
annotation=""/>
<atomType
name="Br105"
element="Br"
mass="79.904"
annotation=""/>
<atomType
name="F106"
element="F"
mass="18.998"
annotation=""/>
<atomType
name="H107"
element="H"
mass="1.008"
annotation=""/>
</atomTypes>
<parameters>
</parameters>
</forcefield>
</ffml>

> <Initial Potential Energy>
427.36926

> <Initial RMS Gradient>
111.80245

> <Minimization Criteria>
CONJUG> Minimization exiting with gradient tolerance ( 0.0100000) satisfied.

> <CHARMm Energy>
5.20277

> <Potential Energy>
5.20277

> <RMS Gradient>
0.00887

> <Bond Energy>
4.26609

> <Angle Energy>
19.27929

> <STRBend>
0.99478

> <Dihedral Energy>
16.0411

> <OOPLane>
0.20012

> <Van der Waals Energy>
59.82992

> <Electrostatic Energy>
-95.40853

> <Hydrogen Bond Energy>
0

> <Solvation Free Energy>
0

> <HasGasteigerCharges>
true

> <REMARK99>
REMARK  99  MacroMolecule created from Mol2 file
REMARK  99  CHEMBL2331774
REMARK  99  PROTEIN
REMARK  99  GASTEIGER
REMARK  99
REMARK  99

$$$$
CHEMBL2331787
  SciTegic05292516403D

 50 52  0  0  0  0            999 V2000
   26.2562   -6.7584    0.3369 C   0  0
   25.0859   -6.0979   -0.2983 C   0  0
   24.2319   -6.7967   -1.1535 C   0  0
   23.1794   -6.1236   -1.7848 C   0  0
   22.9458   -4.7718   -1.5225 C   0  0
   23.7637   -4.0759   -0.6345 C   0  0
   24.8241   -4.7464   -0.0183 C   0  0
   26.2381   -7.9323    0.6846 O   0  0
   27.3749   -5.9580    0.4697 N   0  0
   28.6049   -6.4820    1.0276 C   0  0
   29.5288   -5.3674    1.4783 C   0  0
   22.4352   -1.6783   -0.9154 S   0  0
   23.5753   -2.7181   -0.2657 N   0  0
   20.9173   -2.2529   -0.2020 C   0  0
   19.7608   -2.5058   -0.9370 C   0  0
   18.5977   -2.9114   -0.2637 C   0  0
   18.5717   -3.0583    1.1325 C   0  0
   19.7418   -2.8077    1.8568 C   0  0
   20.9028   -2.4057    1.1972 C   0  0
   19.6157   -2.3391   -2.6446 Cl  0  0
   24.4365   -8.1325   -1.4228 O   0  0
   22.9668   -9.0125    0.2936 C   0  0
   23.4004   -8.9445   -1.0276 C   0  0
   22.7595   -9.7202   -1.9874 C   0  0
   21.6686  -10.4874   -1.6002 C   0  0
   21.2674  -10.4528   -0.2708 C   0  0
   21.8964   -9.7377    0.6927 N   0  0
   20.8344  -11.4544   -2.7485 Cl  0  0
   22.4584   -1.8401   -2.3493 O   0  0
   22.7034   -0.3956   -0.3004 O   0  0
   17.3059   -3.4520    1.8557 C   0  0
   16.2632   -3.7410    1.0248 F   0  0
   17.4806   -4.5489    2.6413 F   0  0
   16.8468   -2.4639    2.6785 F   0  0
   22.5349   -6.6450   -2.4890 H   0  0
   22.1221   -4.2979   -2.0463 H   0  0
   25.4457   -4.2180    0.7002 H   0  0
   27.4066   -5.0610    0.0042 H   0  0
   28.3662   -7.1397    1.8704 H   0  0
   29.0867   -7.0878    0.2528 H   0  0
   30.4520   -5.7808    1.8956 H   0  0
   29.0505   -4.7487    2.2449 H   0  0
   29.7935   -4.7143    0.6400 H   0  0
   24.2726   -2.2423    0.3031 H   0  0
   17.6880   -3.1013   -0.8354 H   0  0
   19.7483   -2.9135    2.9417 H   0  0
   21.7943   -2.1939    1.7853 H   0  0
   23.4737   -8.4664    1.0839 H   0  0
   23.0918   -9.6991   -3.0191 H   0  0
   20.4039  -11.0125    0.0725 H   0  0
  1  2  1  0
  1  8  2  0
  1  9  1  0
  2  3  1  0
  2  7  2  0
  3  4  2  0
  3 21  1  0
  4  5  1  0
  4 35  1  0
  5  6  2  0
  5 36  1  0
  6  7  1  0
  6 13  1  0
  7 37  1  0
  9 10  1  0
  9 38  1  0
 10 11  1  0
 10 39  1  0
 10 40  1  0
 11 41  1  0
 11 42  1  0
 11 43  1  0
 12 13  1  0
 12 14  1  0
 12 29  2  0
 12 30  2  0
 13 44  1  0
 14 15  1  0
 14 19  2  0
 15 16  2  0
 15 20  1  0
 16 17  1  0
 16 45  1  0
 17 18  2  0
 17 31  1  0
 18 19  1  0
 18 46  1  0
 19 47  1  0
 21 23  1  0
 22 23  1  0
 22 27  2  0
 22 48  1  0
 23 24  2  0
 24 25  1  0
 24 49  1  0
 25 26  2  0
 25 28  1  0
 26 27  1  0
 26 50  1  0
 31 32  1  0
 31 33  1  0
 31 34  1  0
M  END
> <Name>
CHEMBL2331787

> <Clean Energy>
45.982399

> <chembl_id>
CHEMBL2331787

> <chembl_pref_name>
None

> <efficacy>
0.18

> <Forcefield>
MMFF

> <ForcefieldBase>
MMFF

> <ForcefieldFFML>
<?xml version="1.0" encoding="UTF-8"?>
<!DOCTYPE ffml SYSTEM "Ffml.dtd">
<ffml version="1.0">
<forcefield name="MMFF" derivedFrom="MMFF" base="MMFF">
<atomTypes>
<atomType
name="C100"
element="C"
mass="12.011"
annotation=""/>
<atomType
name="O101"
element="O"
mass="16"
annotation=""/>
<atomType
name="N102"
element="N"
mass="14.007"
annotation=""/>
<atomType
name="S103"
element="S"
mass="32.066"
annotation=""/>
<atomType
name="Cl104"
element="Cl"
mass="35.453"
annotation=""/>
<atomType
name="F105"
element="F"
mass="18.998"
annotation=""/>
<atomType
name="H106"
element="H"
mass="1.008"
annotation=""/>
</atomTypes>
<parameters>
</parameters>
</forcefield>
</ffml>

> <Initial Potential Energy>
542.84095

> <Initial RMS Gradient>
185.25807

> <Minimization Criteria>
STEEPD> Minimization exiting with gradient tolerance ( 3.0000000) satisfied.

> <CHARMm Energy>
24.06071

> <Potential Energy>
24.06071

> <RMS Gradient>
0.0442

> <Bond Energy>
4.89457

> <Angle Energy>
16.9016

> <STRBend>
0.46583

> <Dihedral Energy>
5.88676

> <OOPLane>
0.17662

> <Van der Waals Energy>
60.22061

> <Electrostatic Energy>
-64.48529

> <Hydrogen Bond Energy>
0

> <Solvation Free Energy>
0

> <HasGasteigerCharges>
true

> <REMARK99>
REMARK  99  MacroMolecule created from Mol2 file
REMARK  99  CHEMBL2331787
REMARK  99  PROTEIN
REMARK  99  GASTEIGER
REMARK  99
REMARK  99

$$$$
CHEMBL2322176
  SciTegic05292516403D

 70 76  0  0  0  0            999 V2000
   16.0909  -26.1480   -0.3621 C   0  0
   13.1806  -25.4066    0.7091 C   0  0
   14.2077  -24.5755    0.1743 N   0  0
   13.9303  -23.4100   -0.5505 C   0  0
   12.6671  -23.0053   -0.7848 C   0  0
   11.8491  -24.9622    0.3815 C   0  0
   11.5968  -23.8023   -0.3032 C   0  0
   10.2770  -23.5215   -0.3797 N   0  0
    9.6829  -24.4956    0.2926 C   0  0
   10.6012  -25.4868    0.6406 N   0  0
    8.2224  -24.5014    0.6246 C   0  0
    7.6910  -23.0969    0.8830 C   0  0
   10.3581  -26.8201    1.1910 C   0  0  1  0  0  0
    9.0550  -27.8742    3.0175 C   0  0
   10.0973  -26.7893    2.7117 C   0  0
    8.3419  -28.0070    1.7087 C   0  0
    9.1132  -27.4943    0.6612 C   0  0
    8.6807  -27.6052   -0.6528 C   0  0
    7.3980  -28.1053   -0.8910 C   0  0
    6.5611  -28.5198    0.1703 C   0  0
    7.0762  -28.5259    1.4790 C   0  0
    5.1274  -28.7593   -0.0832 C   0  0
    4.2131  -27.8266    0.4666 C   0  0
    2.8517  -27.8608    0.1687 C   0  0
    2.3709  -28.8238   -0.7011 C   0  0
    3.2444  -29.7687   -1.2359 C   0  0
    4.6195  -29.7716   -0.9232 C   0  0
    5.4026  -30.8758   -1.4746 C   0  0
    6.3632  -31.5856   -0.8049 N   0  0
    6.6614  -32.7094   -1.4791 N   0  0
    5.9866  -32.6180   -2.6136 N   0  0
    5.1917  -31.5002   -2.6209 N   0  0
   13.4252  -26.3830    1.4139 O   0  0
   15.6034  -24.9431    0.4326 C   0  0
   15.4128  -26.6114   -1.5059 C   0  0
   15.8715  -27.7246   -2.2148 C   0  0
   17.0197  -28.3923   -1.8032 C   0  0
   17.7180  -27.9403   -0.6855 C   0  0
   17.2699  -26.8193    0.0294 C   0  0
   18.0485  -26.3685    1.1493 C   0  0
   12.2962  -21.7569   -1.5188 C   0  0
   18.6865  -25.9713    2.0342 N   0  0
   14.7820  -22.8329   -0.9029 H   0  0
    7.6628  -24.9392   -0.2082 H   0  0
    8.0229  -25.0951    1.5197 H   0  0
    6.6303  -23.1378    1.1505 H   0  0
    7.7893  -22.4628   -0.0048 H   0  0
    8.2318  -22.6149    1.7046 H   0  0
   11.2115  -27.4628    0.9496 H   0  0
    9.5371  -28.8221    3.2781 H   0  0
    8.3870  -27.5640    3.8263 H   0  0
    9.7015  -25.8142    3.0260 H   0  0
   11.0189  -26.9415    3.2845 H   0  0
    9.2840  -27.2309   -1.4763 H   0  0
    7.0097  -28.0923   -1.9109 H   0  0
    6.4622  -28.8555    2.3143 H   0  0
    4.5691  -27.0285    1.1165 H   0  0
    2.1756  -27.1245    0.5961 H   0  0
    1.3178  -28.8460   -0.9631 H   0  0
    2.8408  -30.5290   -1.9041 H   0  0
    6.7558  -31.4329    0.1142 H   0  0
   16.2578  -24.0880    0.2248 H   0  0
   15.6689  -25.1676    1.5044 H   0  0
   14.5015  -26.1286   -1.8563 H   0  0
   15.3240  -28.0739   -3.0881 H   0  0
   17.3779  -29.2590   -2.3550 H   0  0
   18.6205  -28.4660   -0.3773 H   0  0
   11.6974  -21.9893   -2.4062 H   0  0
   13.1844  -21.2114   -1.8561 H   0  0
   11.7211  -21.0818   -0.8757 H   0  0
  1 35  2  0
  2  3  1  0
  2 33  2  0
  3  4  1  0
  3 34  1  0
  4  5  2  0
  4 43  1  0
  5  7  1  0
  5 41  1  0
  6  2  1  0
  6  7  2  0
  7  8  1  0
  8  9  2  0
  9 10  1  0
  9 11  1  0
 10  6  1  0
 11 12  1  0
 11 44  1  0
 11 45  1  0
 12 46  1  0
 12 47  1  0
 12 48  1  0
 13 10  1  0
 13 17  1  0
 13 49  1  0
 14 15  1  0
 14 50  1  0
 14 51  1  0
 15 13  1  0
 15 52  1  0
 15 53  1  0
 16 14  1  0
 16 17  2  0
 17 18  1  0
 18 19  2  0
 18 54  1  0
 19 20  1  0
 19 55  1  0
 20 21  2  0
 20 22  1  0
 21 16  1  0
 21 56  1  0
 22 23  2  0
 23 24  1  0
 23 57  1  0
 24 25  2  0
 24 58  1  0
 25 26  1  0
 25 59  1  0
 26 27  2  0
 26 60  1  0
 27 22  1  0
 27 28  1  0
 28 29  1  0
 29 30  1  0
 29 61  1  0
 30 31  2  0
 31 32  1  0
 32 28  2  0
 34  1  1  0
 34 62  1  0
 34 63  1  0
 35 36  1  0
 35 64  1  0
 36 37  2  0
 36 65  1  0
 37 38  1  0
 37 66  1  0
 38 39  2  0
 38 67  1  0
 39  1  1  0
 39 40  1  0
 40 42  3  0
 41 68  1  0
 41 69  1  0
 41 70  1  0
M  END
> <Name>
CHEMBL2322176

> <Clean Energy>
140.362

> <chembl_id>
CHEMBL2322176

> <chembl_pref_name>
None

> <efficacy>
0.293478261

> <Forcefield>
MMFF

> <ForcefieldBase>
MMFF

> <ForcefieldFFML>
<?xml version="1.0" encoding="UTF-8"?>
<!DOCTYPE ffml SYSTEM "Ffml.dtd">
<ffml version="1.0">
<forcefield name="MMFF" derivedFrom="MMFF" base="MMFF">
<atomTypes>
<atomType
name="C100"
element="C"
mass="12.011"
annotation=""/>
<atomType
name="N101"
element="N"
mass="14.007"
annotation=""/>
<atomType
name="O102"
element="O"
mass="16"
annotation=""/>
<atomType
name="H103"
element="H"
mass="1.008"
annotation=""/>
</atomTypes>
<parameters>
</parameters>
</forcefield>
</ffml>

> <Initial Potential Energy>
405.38419

> <Initial RMS Gradient>
46.53546

> <Minimization Criteria>
STEEPD> Minimization exiting with gradient tolerance ( 3.0000000) satisfied.

> <CHARMm Energy>
73.14213

> <Potential Energy>
73.14213

> <RMS Gradient>
0.0217

> <Bond Energy>
11.24579

> <Angle Energy>
19.4139

> <STRBend>
-0.52491

> <Dihedral Energy>
10.28583

> <OOPLane>
0.60383

> <Van der Waals Energy>
74.01755

> <Electrostatic Energy>
-41.89986

> <Hydrogen Bond Energy>
0

> <Solvation Free Energy>
0

> <HasGasteigerCharges>
true

> <REMARK99>
REMARK  99  MacroMolecule created from Mol2 file
REMARK  99  CHEMBL2322176
REMARK  99  PROTEIN
REMARK  99  GASTEIGER
REMARK  99
REMARK  99

$$$$
CHEMBL1947147
  SciTegic05292516403D

 56 61  0  0  0  0            999 V2000
    7.3825  -25.2392   -1.8887 C   0  0
    7.3411  -26.5640   -1.4184 C   0  0
    8.1922  -26.9803   -0.3938 C   0  0
    8.2545  -24.2974   -1.3312 C   0  0
    9.0832  -24.7124   -0.3066 C   0  0
    9.0575  -26.0416    0.1337 C   0  0
   10.0330  -26.1920    1.1262 N   0  0
   10.6806  -24.9522    1.3278 C   0  0
   10.0874  -24.0412    0.4196 N   0  0
   11.5543  -24.7591    2.1593 O   0  0
   10.4164  -22.7001    0.2632 C   0  0
   10.3172  -27.4028    1.8619 C   0  0
   11.0444  -28.4601    1.0530 C   0  0
   10.7051  -29.8195    1.1175 C   0  0
   11.4178  -30.7660    0.3767 C   0  0
   12.4893  -30.3761   -0.4282 C   0  0
   12.8800  -29.0308   -0.4994 C   0  0
   12.1463  -28.0902    0.2507 C   0  0
   10.2132  -20.5675   -0.1904 O   0  0
    9.5484  -21.7742   -0.1892 N   0  0
   11.4962  -20.7518    0.2046 C   0  0
   11.6897  -22.0885    0.5102 C   0  0
   12.9844  -22.4881    0.8893 C   0  0
   14.0067  -21.5313    0.9461 C   0  0
   13.7630  -20.1939    0.6217 C   0  0
   12.4781  -19.7632    0.2699 C   0  0
   14.7186  -19.2116    0.6142 O   0  0
   16.0683  -19.6690    0.5691 C   0  0
   14.0453  -28.6077   -1.3892 C   0  0  2  0  0  0
   15.3469  -29.3270   -1.0705 C   0  0
   16.2247  -28.4014   -0.6304 N   0  0
   15.6915  -27.1736   -0.6852 C   0  0
   14.4130  -27.2317   -1.1418 O   0  0
   15.5946  -30.5163   -1.2052 O   0  0
   16.2650  -26.1402   -0.3880 O   0  0
   13.7095  -28.7398   -2.8735 C   0  0
    9.4108  -30.4058    2.1011 Cl  0  0
    6.7238  -24.9428   -2.7017 H   0  0
    6.6389  -27.2675   -1.8633 H   0  0
    8.1687  -28.0046   -0.0424 H   0  0
    8.2692  -23.2854   -1.7186 H   0  0
   10.9425  -27.1588    2.7290 H   0  0
    9.3599  -27.7577    2.2538 H   0  0
   11.1449  -31.8183    0.4238 H   0  0
   13.0194  -31.1430   -0.9929 H   0  0
   12.4315  -27.0384    0.2136 H   0  0
   13.2234  -23.5227    1.1142 H   0  0
   14.9928  -21.8737    1.2477 H   0  0
   12.2651  -18.7271    0.0231 H   0  0
   16.7050  -18.7993    0.3799 H   0  0
   16.2288  -20.3801   -0.2485 H   0  0
   16.3684  -20.0924    1.5330 H   0  0
   17.1697  -28.5941   -0.3431 H   0  0
   14.5384  -28.3835   -3.4967 H   0  0
   12.8365  -28.1298   -3.1328 H   0  0
   13.5005  -29.7768   -3.1572 H   0  0
  1  2  2  0
  1 38  1  0
  2  3  1  0
  2 39  1  0
  3  6  2  0
  3 40  1  0
  4  1  1  0
  4 41  1  0
  5  4  2  0
  5  6  1  0
  6  7  1  0
  7  8  1  0
  7 12  1  0
  8  9  1  0
  8 10  2  0
  9  5  1  0
  9 11  1  0
 11 22  1  0
 12 13  1  0
 12 42  1  0
 12 43  1  0
 13 14  2  0
 14 15  1  0
 14 37  1  0
 15 16  2  0
 15 44  1  0
 16 17  1  0
 16 45  1  0
 17 18  2  0
 17 29  1  0
 18 13  1  0
 18 46  1  0
 19 20  1  0
 20 11  2  0
 21 19  1  0
 21 22  2  0
 22 23  1  0
 23 24  2  0
 23 47  1  0
 24 25  1  0
 24 48  1  0
 25 26  2  0
 25 27  1  0
 26 21  1  0
 26 49  1  0
 27 28  1  0
 28 50  1  0
 28 51  1  0
 28 52  1  0
 29 30  1  0
 29 36  1  0
 30 31  1  0
 30 34  2  0
 31 32  1  0
 31 53  1  0
 32 33  1  0
 32 35  2  0
 33 29  1  0
 36 54  1  0
 36 55  1  0
 36 56  1  0
M  END
> <Name>
CHEMBL1947147

> <Clean Energy>
94.523399

> <chembl_id>
CHEMBL1947147

> <chembl_pref_name>
None

> <efficacy>
0.252

> <Forcefield>
MMFF

> <ForcefieldBase>
MMFF

> <ForcefieldFFML>
<?xml version="1.0" encoding="UTF-8"?>
<!DOCTYPE ffml SYSTEM "Ffml.dtd">
<ffml version="1.0">
<forcefield name="MMFF" derivedFrom="MMFF" base="MMFF">
<atomTypes>
<atomType
name="C100"
element="C"
mass="12.011"
annotation=""/>
<atomType
name="N101"
element="N"
mass="14.007"
annotation=""/>
<atomType
name="O102"
element="O"
mass="16"
annotation=""/>
<atomType
name="Cl103"
element="Cl"
mass="35.453"
annotation=""/>
<atomType
name="H104"
element="H"
mass="1.008"
annotation=""/>
</atomTypes>
<parameters>
</parameters>
</forcefield>
</ffml>

> <Initial Potential Energy>
96.49614

> <Initial RMS Gradient>
32.03966

> <Minimization Criteria>
STEEPD> Minimization exiting with gradient tolerance ( 3.0000000) satisfied.

> <CHARMm Energy>
4.16684

> <Potential Energy>
4.16684

> <RMS Gradient>
0.10416

> <Bond Energy>
8.68652

> <Angle Energy>
39.81698

> <STRBend>
-2.26041

> <Dihedral Energy>
12.50807

> <OOPLane>
0.09299

> <Van der Waals Energy>
62.7568

> <Electrostatic Energy>
-117.43411

> <Hydrogen Bond Energy>
0

> <Solvation Free Energy>
0

> <HasGasteigerCharges>
true

> <REMARK99>
REMARK  99  MacroMolecule created from Mol2 file
REMARK  99  CHEMBL1947147
REMARK  99  PROTEIN
REMARK  99  GASTEIGER
REMARK  99
REMARK  99

$$$$
CHEMBL3597397
  SciTegic05292516403D

 57 60  0  0  0  0            999 V2000
   -2.7378    1.7128    0.2864 C   0  0
   -3.1086    0.3671    0.2901 C   0  0
   -2.1902   -0.6503    0.0258 C   0  0
   -1.4034    2.0699    0.0465 C   0  0
   -0.4457    1.0591   -0.2239 C   0  0
   -0.8725   -0.2706   -0.2377 C   0  0
    0.2119   -1.0499   -0.5561 N   0  0
    1.3149   -0.2658   -0.7381 C   0  0
    0.9625    1.0536   -0.5159 C   0  0
    1.8851    2.2351   -0.6066 C   0  0
    3.2540    1.9975    0.0045 C   0  0
    3.2402    1.4109    1.2273 O   0  0
    4.3057    2.3347   -0.5259 O   0  0
   -3.7743    2.5728    0.5356 O   0  0
   -3.5505    3.9694    0.3438 C   0  0
   -4.9038    4.6694    0.4571 C   0  0
   -4.7877    6.1825    0.3134 C   0  0
   -6.1021    6.7439    0.3738 O   0  0
   -6.2084    8.1113    0.3154 C   0  0
   -5.1297    8.9928    0.1760 C   0  0
   -5.3428   10.3780    0.1564 C   0  0
   -6.6316   10.8942    0.2844 C   0  0
   -7.7129   10.0283    0.4227 C   0  0
   -7.5032    8.6473    0.4150 C   0  0
   -8.6136    7.8580    0.5848 O   0  0
   -8.9693    7.2167   -0.6431 C   0  0
  -10.1819    6.3561   -0.3793 C   0  0
  -11.4696    6.7890   -0.7273 C   0  0
  -12.5784    5.9797   -0.4666 C   0  0
  -12.4043    4.7405    0.1483 C   0  0
  -11.1334    4.3037    0.5116 C   0  0
  -10.0267    5.1129    0.2532 C   0  0
  -13.7709    3.7466    0.4678 Cl  0  0
   -4.1453    0.1024    0.4901 H   0  0
   -2.5014   -1.6898    0.0169 H   0  0
   -1.0817    3.1033    0.0546 H   0  0
    0.1835   -2.0553   -0.6573 H   0  0
    2.2629   -0.7135   -1.0098 H   0  0
    2.0248    2.4845   -1.6651 H   0  0
    1.4525    3.1107   -0.1111 H   0  0
    2.3334    1.1892    1.5225 H   0  0
   -2.8690    4.3422    1.1170 H   0  0
   -3.1265    4.1570   -0.6500 H   0  0
   -5.5925    4.2728   -0.3003 H   0  0
   -5.3764    4.4216    1.4164 H   0  0
   -4.1718    6.5741    1.1319 H   0  0
   -4.3272    6.4232   -0.6522 H   0  0
   -4.1071    8.6361    0.0887 H   0  0
   -4.4993   11.0568    0.0523 H   0  0
   -6.7952   11.9685    0.2836 H   0  0
   -8.7183   10.4242    0.5372 H   0  0
   -9.2044    7.9689   -1.4076 H   0  0
   -8.1633    6.5821   -1.0306 H   0  0
  -11.6179    7.7587   -1.1977 H   0  0
  -13.5729    6.3220   -0.7405 H   0  0
  -10.9946    3.3420    0.9982 H   0  0
   -9.0358    4.7766    0.5532 H   0  0
  1  2  2  0
  1 14  1  0
  2  3  1  0
  2 34  1  0
  3  6  2  0
  3 35  1  0
  4  1  1  0
  4 36  1  0
  5  4  2  0
  5  6  1  0
  6  7  1  0
  7  8  1  0
  7 37  1  0
  8  9  2  0
  8 38  1  0
  9  5  1  0
  9 10  1  0
 10 11  1  0
 10 39  1  0
 10 40  1  0
 11 12  1  0
 11 13  2  0
 12 41  1  0
 14 15  1  0
 15 16  1  0
 15 42  1  0
 15 43  1  0
 16 17  1  0
 16 44  1  0
 16 45  1  0
 17 18  1  0
 17 46  1  0
 17 47  1  0
 18 19  1  0
 19 20  2  0
 20 21  1  0
 20 48  1  0
 21 22  2  0
 21 49  1  0
 22 23  1  0
 22 50  1  0
 23 24  2  0
 23 51  1  0
 24 19  1  0
 24 25  1  0
 25 26  1  0
 26 27  1  0
 26 52  1  0
 26 53  1  0
 27 28  2  0
 28 29  1  0
 28 54  1  0
 29 30  2  0
 29 55  1  0
 30 31  1  0
 30 33  1  0
 31 32  2  0
 31 56  1  0
 32 27  1  0
 32 57  1  0
M  END
> <Name>
CHEMBL3597397

> <Clean Energy>
24.541599

> <chembl_id>
CHEMBL3597397

> <chembl_pref_name>
None

> <efficacy>
0.161

> <Forcefield>
MMFF

> <ForcefieldBase>
MMFF

> <ForcefieldFFML>
<?xml version="1.0" encoding="UTF-8"?>
<!DOCTYPE ffml SYSTEM "Ffml.dtd">
<ffml version="1.0">
<forcefield name="MMFF" derivedFrom="MMFF" base="MMFF">
<atomTypes>
<atomType
name="C100"
element="C"
mass="12.011"
annotation=""/>
<atomType
name="N101"
element="N"
mass="14.007"
annotation=""/>
<atomType
name="O102"
element="O"
mass="16"
annotation=""/>
<atomType
name="Cl103"
element="Cl"
mass="35.453"
annotation=""/>
<atomType
name="H104"
element="H"
mass="1.008"
annotation=""/>
</atomTypes>
<parameters>
</parameters>
</forcefield>
</ffml>

> <Initial Potential Energy>
180.49479

> <Initial RMS Gradient>
30.86296

> <Minimization Criteria>
CONJUG> Minimization exiting with gradient tolerance ( 0.0100000) satisfied.

> <CHARMm Energy>
75.25815

> <Potential Energy>
75.25815

> <RMS Gradient>
0.009

> <Bond Energy>
5.79662

> <Angle Energy>
19.30253

> <STRBend>
-0.28019

> <Dihedral Energy>
5.06116

> <OOPLane>
0.07262

> <Van der Waals Energy>
59.84048

> <Electrostatic Energy>
-14.53507

> <Hydrogen Bond Energy>
0

> <Solvation Free Energy>
0

> <HasGasteigerCharges>
true

> <REMARK99>
REMARK  99  MacroMolecule created from Mol2 file
REMARK  99  CHEMBL3597397
REMARK  99  PROTEIN
REMARK  99  GASTEIGER
REMARK  99
REMARK  99

$$$$
CHEMBL180633
  SciTegic05292516403D

 52 55  0  0  0  0            999 V2000
    8.7477    1.8797    0.6946 C   0  0
    8.5226    0.4518    0.3691 C   0  0
    7.6897    2.7098    0.7596 C   0  0
    6.1569    0.9236    0.2190 C   0  0
    6.3500    2.2093    0.5388 C   0  0
    7.2452    0.0345    0.1286 O   0  0
   10.0969    2.2997    0.9079 C   0  0
   11.1847    2.6753    1.0727 N   0  0
   -3.7385   -1.4015    0.0280 C   0  0
    4.8407    0.3052   -0.0404 C   0  0
   -2.4735   -0.7939   -0.0542 C   0  0
    9.4589   -0.3403    0.3056 O   0  0
   -2.2882    0.5463    0.0860 N   0  0
    7.8337    4.4074    1.1448 S   0  0
   -4.8572   -0.5700    0.2158 C   0  0
    3.8028    1.0135   -0.6619 C   0  0
    4.6107   -1.0388    0.2955 C   0  0
   -1.2187   -1.6106   -0.2697 C   0  0
    2.3365   -0.9166   -0.5272 C   0  0
   -3.3803    1.3084    0.2928 C   0  0
    3.3729   -1.6451    0.0493 C   0  0
    2.5625    0.4081   -0.9053 C   0  0
   -0.0019   -0.7431   -0.5723 C   0  0
    1.1498   -1.5859   -0.6970 O   0  0
   -3.9026   -2.8933   -0.1422 C   0  0
   -4.6657    0.8059    0.3631 C   0  0
   -6.2558   -1.1259    0.3235 C   0  0
    7.5836    5.1288   -0.4966 C   0  0
   -5.2633   -3.4189    0.3137 C   0  0
   -6.3828   -2.5428   -0.2288 C   0  0
    5.5120    2.8918    0.6519 H   0  0
    3.9439    2.0431   -0.9824 H   0  0
    5.3938   -1.6346    0.7614 H   0  0
   -1.0220   -2.2132    0.6254 H   0  0
   -1.3629   -2.3101   -1.1019 H   0  0
   -3.1892    2.3715    0.4054 H   0  0
    3.2153   -2.6841    0.3267 H   0  0
    1.7911    0.9916   -1.3991 H   0  0
   -0.1563   -0.2016   -1.5140 H   0  0
    0.1477   -0.0251    0.2456 H   0  0
   -3.7660   -3.1304   -1.2048 H   0  0
   -3.1298   -3.4275    0.4221 H   0  0
   -5.5036    1.4752    0.5315 H   0  0
   -6.5426   -1.1216    1.3826 H   0  0
   -6.9580   -0.4758   -0.2121 H   0  0
    7.6912    6.2148   -0.4316 H   0  0
    6.5817    4.9019   -0.8712 H   0  0
    8.3284    4.7471   -1.2005 H   0  0
   -5.3914   -4.4523   -0.0277 H   0  0
   -5.3084   -3.4353    1.4102 H   0  0
   -7.3580   -2.9596    0.0466 H   0  0
   -6.3380   -2.5240   -1.3251 H   0  0
  2  1  1  0
  3  1  2  0
  4  5  2  0
  5  3  1  0
  5 31  1  0
  6  2  1  0
  6  4  1  0
  7  1  1  0
  8  7  3  0
  9 11  2  0
 10  4  1  0
 11 18  1  0
 12  2  2  0
 13 11  1  0
 14  3  1  0
 15  9  1  0
 15 26  2  0
 16 10  2  0
 16 32  1  0
 17 10  1  0
 17 33  1  0
 18 23  1  0
 18 34  1  0
 18 35  1  0
 19 21  1  0
 20 13  2  0
 20 36  1  0
 21 17  2  0
 21 37  1  0
 22 16  1  0
 22 19  2  0
 22 38  1  0
 23 24  1  0
 23 39  1  0
 23 40  1  0
 24 19  1  0
 25  9  1  0
 25 41  1  0
 25 42  1  0
 26 20  1  0
 26 43  1  0
 27 15  1  0
 27 44  1  0
 27 45  1  0
 28 14  1  0
 28 46  1  0
 28 47  1  0
 28 48  1  0
 29 25  1  0
 29 49  1  0
 29 50  1  0
 30 27  1  0
 30 29  1  0
 30 51  1  0
 30 52  1  0
M  END
> <Name>
CHEMBL180633

> <Clean Energy>
43.561901

> <chembl_id>
CHEMBL180633

> <chembl_pref_name>
None

> <efficacy>
0.19

> <Forcefield>
MMFF

> <ForcefieldBase>
MMFF

> <ForcefieldFFML>
<?xml version="1.0" encoding="UTF-8"?>
<!DOCTYPE ffml SYSTEM "Ffml.dtd">
<ffml version="1.0">
<forcefield name="MMFF" derivedFrom="MMFF" base="MMFF">
<atomTypes>
<atomType
name="C100"
element="C"
mass="12.011"
annotation=""/>
<atomType
name="O101"
element="O"
mass="16"
annotation=""/>
<atomType
name="N102"
element="N"
mass="14.007"
annotation=""/>
<atomType
name="S103"
element="S"
mass="32.066"
annotation=""/>
<atomType
name="H104"
element="H"
mass="1.008"
annotation=""/>
</atomTypes>
<parameters>
</parameters>
</forcefield>
</ffml>

> <Initial Potential Energy>
182.42186

> <Initial RMS Gradient>
26.59454

> <Minimization Criteria>
CONJUG> Minimization exiting with gradient tolerance ( 0.0100000) satisfied.

> <CHARMm Energy>
46.62056

> <Potential Energy>
46.62056

> <RMS Gradient>
0.00946

> <Bond Energy>
5.41727

> <Angle Energy>
18.19897

> <STRBend>
0.56552

> <Dihedral Energy>
-0.89668

> <OOPLane>
0.05036

> <Van der Waals Energy>
63.54703

> <Electrostatic Energy>
-40.2619

> <Hydrogen Bond Energy>
0

> <Solvation Free Energy>
0

> <HasGasteigerCharges>
true

> <REMARK99>
REMARK  99  MacroMolecule created from Mol2 file
REMARK  99  CHEMBL180633
REMARK  99  PROTEIN
REMARK  99  GASTEIGER
REMARK  99
REMARK  99

$$$$
CHEMBL2322441
  SciTegic05292516403D

 65 70  0  0  0  0            999 V2000
   28.7583  -11.7789   -0.4262 C   0  0
   29.8568  -10.9511   -0.7957 N   0  0
   29.7729   -9.5527   -0.8125 C   0  0
   28.6405   -8.9112   -0.4741 C   0  0
   27.5692  -11.0393   -0.0757 C   0  0
   27.5142   -9.6727   -0.0933 C   0  0
   26.3310   -9.1816    0.3258 N   0  0
   25.6090  -10.2556    0.6251 C   0  0
   26.3179  -11.4281    0.3560 N   0  0
   24.2135  -10.2004    1.1717 C   0  0
   23.9440   -8.9111    1.9365 C   0  0
   25.9248  -12.8159    0.5705 C   0  0  1  0  0  0
   24.9096  -14.3552    2.2090 C   0  0
   25.9416  -13.2298    2.0561 C   0  0
   23.9575  -14.0643    1.0887 C   0  0
   24.5276  -13.1965    0.1483 C   0  0
   23.8476  -12.8790   -1.0164 C   0  0
   22.5660  -13.4084   -1.2078 C   0  0
   21.9722  -14.2722   -0.2581 C   0  0
   22.6901  -14.5997    0.9042 C   0  0
   20.6188  -14.8100   -0.4840 C   0  0
   19.5372  -13.9038   -0.3900 C   0  0
   18.2164  -14.3171   -0.5572 C   0  0
   17.9423  -15.6509   -0.8183 C   0  0
   18.9930  -16.5630   -0.9149 C   0  0
   20.3387  -16.1714   -0.7597 C   0  0
   21.3443  -17.2321   -0.9063 C   0  0
   22.6535  -17.0677   -1.2681 N   0  0
   23.2821  -18.2481   -1.3286 N   0  0
   22.3549  -19.1437   -1.0283 N   0  0
   21.1490  -18.5366   -0.7768 N   0  0
   28.8360  -13.0043   -0.3906 O   0  0
   31.1189  -11.5959   -1.1629 C   0  0
   31.9590  -12.0312    0.0538 C   0  0
   32.4742  -10.8360    0.8575 C   0  0
   33.1384  -12.8877   -0.4119 C   0  0
   30.6651   -9.0009   -1.1011 H   0  0
   28.5750   -7.8294   -0.4770 H   0  0
   23.5020  -10.2733    0.3423 H   0  0
   24.0233  -11.0345    1.8515 H   0  0
   22.9257   -8.9161    2.3384 H   0  0
   24.0451   -8.0339    1.2884 H   0  0
   24.6404   -8.7956    2.7740 H   0  0
   26.5938  -13.4641   -0.0021 H   0  0
   25.3730  -15.3360    2.0593 H   0  0
   24.4229  -14.3189    3.1877 H   0  0
   25.6578  -12.3920    2.7062 H   0  0
   26.9394  -13.5448    2.3811 H   0  0
   24.2896  -12.2276   -1.7663 H   0  0
   22.0214  -13.1444   -2.1143 H   0  0
   22.2628  -15.2669    1.6510 H   0  0
   19.7266  -12.8540   -0.1677 H   0  0
   17.4034  -13.6000   -0.4750 H   0  0
   16.9170  -15.9845   -0.9456 H   0  0
   18.7606  -17.6057   -1.1224 H   0  0
   23.1650  -16.2225   -1.4822 H   0  0
   30.8729  -12.4803   -1.7644 H   0  0
   31.6950  -10.9272   -1.8150 H   0  0
   31.3406  -12.6445    0.7208 H   0  0
   33.1172  -11.1693    1.6793 H   0  0
   31.6486  -10.2711    1.3010 H   0  0
   33.0569  -10.1549    0.2283 H   0  0
   33.7318  -13.2312    0.4421 H   0  0
   33.7994  -12.3245   -1.0796 H   0  0
   32.7869  -13.7742   -0.9503 H   0  0
  1  2  1  0
  1 32  2  0
  2  3  1  0
  2 33  1  0
  3  4  2  0
  3 37  1  0
  4  6  1  0
  4 38  1  0
  5  1  1  0
  5  6  2  0
  6  7  1  0
  7  8  2  0
  8  9  1  0
  8 10  1  0
  9  5  1  0
 10 11  1  0
 10 39  1  0
 10 40  1  0
 11 41  1  0
 11 42  1  0
 11 43  1  0
 12  9  1  0
 12 16  1  0
 12 44  1  0
 13 14  1  0
 13 45  1  0
 13 46  1  0
 14 12  1  0
 14 47  1  0
 14 48  1  0
 15 13  1  0
 15 16  2  0
 16 17  1  0
 17 18  2  0
 17 49  1  0
 18 19  1  0
 18 50  1  0
 19 20  2  0
 19 21  1  0
 20 15  1  0
 20 51  1  0
 21 22  2  0
 22 23  1  0
 22 52  1  0
 23 24  2  0
 23 53  1  0
 24 25  1  0
 24 54  1  0
 25 26  2  0
 25 55  1  0
 26 21  1  0
 26 27  1  0
 27 28  1  0
 28 29  1  0
 28 56  1  0
 29 30  2  0
 30 31  1  0
 31 27  2  0
 33 34  1  0
 33 57  1  0
 33 58  1  0
 34 35  1  0
 34 36  1  0
 34 59  1  0
 35 60  1  0
 35 61  1  0
 35 62  1  0
 36 63  1  0
 36 64  1  0
 36 65  1  0
M  END
> <Name>
CHEMBL2322441

> <Clean Energy>
102.555

> <chembl_id>
CHEMBL2322441

> <chembl_pref_name>
None

> <efficacy>
0.25

> <Forcefield>
MMFF

> <ForcefieldBase>
MMFF

> <ForcefieldFFML>
<?xml version="1.0" encoding="UTF-8"?>
<!DOCTYPE ffml SYSTEM "Ffml.dtd">
<ffml version="1.0">
<forcefield name="MMFF" derivedFrom="MMFF" base="MMFF">
<atomTypes>
<atomType
name="C100"
element="C"
mass="12.011"
annotation=""/>
<atomType
name="N101"
element="N"
mass="14.007"
annotation=""/>
<atomType
name="O102"
element="O"
mass="16"
annotation=""/>
<atomType
name="H103"
element="H"
mass="1.008"
annotation=""/>
</atomTypes>
<parameters>
</parameters>
</forcefield>
</ffml>

> <Initial Potential Energy>
197.50923

> <Initial RMS Gradient>
33.25483

> <Minimization Criteria>
CONJUG> Minimization exiting with gradient tolerance ( 0.0100000) satisfied.

> <CHARMm Energy>
48.06041

> <Potential Energy>
48.06041

> <RMS Gradient>
0.00997

> <Bond Energy>
9.81916

> <Angle Energy>
19.98189

> <STRBend>
-0.66064

> <Dihedral Energy>
0.77379

> <OOPLane>
0.1303

> <Van der Waals Energy>
58.88109

> <Electrostatic Energy>
-40.86519

> <Hydrogen Bond Energy>
0

> <Solvation Free Energy>
0

> <HasGasteigerCharges>
true

> <REMARK99>
REMARK  99  MacroMolecule created from Mol2 file
REMARK  99  CHEMBL2322441
REMARK  99  PROTEIN
REMARK  99  GASTEIGER
REMARK  99
REMARK  99

$$$$
CHEMBL518499
  SciTegic05292516403D

 52 55  0  0  0  0            999 V2000
    2.8987   -6.5575   -1.4926 C   0  0
    2.7364   -7.8754   -1.8982 C   0  0
    3.4166   -8.8819   -1.2142 C   0  0
    3.6707   -6.1325   -0.4695 N   0  0
    4.2964   -7.1407    0.1716 C   0  0
    4.2157   -8.4972   -0.1262 C   0  0
    5.0601   -9.1553    0.7971 C   0  0
    5.5589   -8.2311    1.6989 C   0  0
    5.1777   -6.9892    1.2198 N   0  0
    6.3930   -8.4303    2.9154 C   0  0
    5.6968   -5.6928    1.6435 C   0  0
    6.7744   -5.1962    0.6980 C   0  0
    7.8431   -6.0233    0.3142 C   0  0
    8.8196   -5.5670   -0.5688 C   0  0
    8.7348   -4.2801   -1.1018 C   0  0
    7.6935   -3.4383   -0.7142 C   0  0
    6.7206   -3.8923    0.1836 C   0  0
    5.3307  -10.4793    0.8181 O   0  0
    6.6188  -10.9067    0.5754 C   0  0
    7.0330  -12.0650    1.2337 C   0  0
    8.3301  -12.5468    1.0434 C   0  0
    9.2017  -11.8751    0.1865 C   0  0
    8.7837  -10.7338   -0.4948 C   0  0
    7.4874  -10.2515   -0.3058 C   0  0
    9.7838   -6.4577   -0.9638 O   0  0
   10.9855   -6.3346   -0.1774 C   0  0  2  0  0  0
   12.1688   -6.6011   -1.1083 C   0  0
   10.9804   -7.3720    0.9393 C   0  0
   11.8440   -6.5550   -2.4238 O   0  0
   13.3070   -6.8286   -0.7263 O   0  0
   10.8053  -12.4573   -0.0320 Cl  0  0
    2.2034   -5.6187   -2.1567 F   0  0
    9.8849   -3.7157   -2.2533 Cl  0  0
    2.0936   -8.1054   -2.7390 H   0  0
    3.3387   -9.9224   -1.5083 H   0  0
    6.0170   -7.8291    3.7492 H   0  0
    7.4346   -8.1554    2.7264 H   0  0
    6.3737   -9.4758    3.2404 H   0  0
    4.8475   -5.0016    1.6885 H   0  0
    6.1050   -5.7796    2.6540 H   0  0
    7.9093   -7.0452    0.6766 H   0  0
    7.6185   -2.4339   -1.1227 H   0  0
    5.9012   -3.2269    0.4529 H   0  0
    6.3521  -12.5849    1.9022 H   0  0
    8.6530  -13.4436    1.5649 H   0  0
    9.4580  -10.2199   -1.1747 H   0  0
    7.1679   -9.3699   -0.8541 H   0  0
   11.1121   -5.3205    0.2235 H   0  0
   11.9148   -7.3501    1.5094 H   0  0
   10.8518   -8.3820    0.5339 H   0  0
   10.1555   -7.1997    1.6367 H   0  0
   10.8855   -6.3666   -2.5275 H   0  0
  1  2  2  0
  1 32  1  0
  2  3  1  0
  2 34  1  0
  3  6  2  0
  3 35  1  0
  4  1  1  0
  5  4  2  0
  5  6  1  0
  6  7  1  0
  7  8  2  0
  7 18  1  0
  8  9  1  0
  8 10  1  0
  9  5  1  0
  9 11  1  0
 10 36  1  0
 10 37  1  0
 10 38  1  0
 11 12  1  0
 11 39  1  0
 11 40  1  0
 12 13  2  0
 13 14  1  0
 13 41  1  0
 14 15  2  0
 14 25  1  0
 15 16  1  0
 15 33  1  0
 16 17  2  0
 16 42  1  0
 17 12  1  0
 17 43  1  0
 18 19  1  0
 19 20  2  0
 20 21  1  0
 20 44  1  0
 21 22  2  0
 21 45  1  0
 22 23  1  0
 22 31  1  0
 23 24  2  0
 23 46  1  0
 24 19  1  0
 24 47  1  0
 25 26  1  0
 26 27  1  0
 26 28  1  0
 26 48  1  0
 27 29  1  0
 27 30  2  0
 28 49  1  0
 28 50  1  0
 28 51  1  0
 29 52  1  0
M  END
> <Name>
CHEMBL518499

> <Clean Energy>
100.876999

> <chembl_id>
CHEMBL518499

> <chembl_pref_name>
None

> <efficacy>
0.21

> <Forcefield>
MMFF

> <ForcefieldBase>
MMFF

> <ForcefieldFFML>
<?xml version="1.0" encoding="UTF-8"?>
<!DOCTYPE ffml SYSTEM "Ffml.dtd">
<ffml version="1.0">
<forcefield name="MMFF" derivedFrom="MMFF" base="MMFF">
<atomTypes>
<atomType
name="C100"
element="C"
mass="12.011"
annotation=""/>
<atomType
name="N101"
element="N"
mass="14.007"
annotation=""/>
<atomType
name="O102"
element="O"
mass="16"
annotation=""/>
<atomType
name="Cl103"
element="Cl"
mass="35.453"
annotation=""/>
<atomType
name="F104"
element="F"
mass="18.998"
annotation=""/>
<atomType
name="H105"
element="H"
mass="1.008"
annotation=""/>
</atomTypes>
<parameters>
</parameters>
</forcefield>
</ffml>

> <Initial Potential Energy>
269.29025

> <Initial RMS Gradient>
35.92816

> <Minimization Criteria>
STEEPD> Minimization exiting with gradient tolerance ( 3.0000000) satisfied.

> <CHARMm Energy>
96.57013

> <Potential Energy>
96.57013

> <RMS Gradient>
0.1662

> <Bond Energy>
4.95231

> <Angle Energy>
7.79823

> <STRBend>
1.12574

> <Dihedral Energy>
15.8938

> <OOPLane>
0.13049

> <Van der Waals Energy>
57.30054

> <Electrostatic Energy>
9.36901

> <Hydrogen Bond Energy>
0

> <Solvation Free Energy>
0

> <HasGasteigerCharges>
true

> <REMARK99>
REMARK  99  MacroMolecule created from Mol2 file
REMARK  99  CHEMBL518499
REMARK  99  PROTEIN
REMARK  99  GASTEIGER
REMARK  99
REMARK  99

$$$$
CHEMBL1801744
  SciTegic05292516403D

 65 69  0  0  0  0            999 V2000
   -0.9275  -27.3377   -1.1217 C   0  0
   -0.8204  -25.9678   -0.8213 C   0  0
    0.2363  -28.2376   -1.0426 C   0  0
    0.4416  -25.3198   -0.4174 C   0  0
    1.0872  -24.4065   -1.2825 C   0  0
    1.0259  -25.5855    0.8325 C   0  0
    2.2779  -23.7600   -0.9198 C   0  0
   -2.1464  -27.9171   -1.5140 C   0  0
   -1.9967  -25.2009   -0.9181 C   0  0
   -3.2936  -27.1338   -1.5998 C   0  0
   -3.2177  -25.7762   -1.2987 C   0  0
    2.8148  -24.0087    0.3333 C   0  0
    2.2008  -24.9324    1.1888 C   0  0
    3.0116  -25.1427    2.4304 C   0  0
    3.9284  -23.9131    2.4261 C   0  0
    4.0870  -23.4804    0.9524 C   0  0  2  0  0  0
    4.3317  -22.0507    0.8153 N   0  0
    4.0916  -19.8361    0.7468 N   0  0
    5.5956  -21.5244    0.6452 C   0  0
    3.4565  -20.9819    0.9324 C   0  0
    5.4150  -20.1514    0.5893 C   0  0
    7.8372  -21.3945    0.3934 C   0  0
    6.7589  -22.2007    0.5624 N   0  0
    6.5419  -19.3312    0.4104 C   0  0
    7.7763  -19.9969    0.3125 C   0  0
    1.9910  -21.0913    1.2251 C   0  0
    6.4783  -17.8375    0.3345 C   0  0
    1.4437  -19.8418    1.9030 C   0  0
    9.1733  -22.0925    0.2685 C   0  0
    0.2362  -28.9243    0.1216 O   0  0
    1.0502  -28.3842   -1.9334 O   0  0
    9.6900  -22.1717   -1.1804 C   0  0
   11.1272  -22.6979   -1.1899 C   0  0
    8.8076  -23.0646   -2.0566 C   0  0
    0.6648  -24.2061   -2.2666 H   0  0
    0.5741  -26.2976    1.5180 H   0  0
    2.7618  -23.0785   -1.6143 H   0  0
   -2.1832  -28.9725   -1.7669 H   0  0
   -1.9725  -24.1355   -0.6927 H   0  0
   -4.2381  -27.5720   -1.9100 H   0  0
   -4.1060  -25.1526   -1.3673 H   0  0
    2.3924  -25.1747    3.3313 H   0  0
    3.5927  -26.0668    2.3448 H   0  0
    3.4627  -23.1183    3.0240 H   0  0
    4.8954  -24.1238    2.8964 H   0  0
    4.9233  -24.0211    0.4914 H   0  0
    8.6891  -19.4218    0.1738 H   0  0
    1.4478  -21.2476    0.2872 H   0  0
    1.7851  -21.9406    1.8817 H   0  0
    6.8924  -17.4898   -0.6173 H   0  0
    7.0496  -17.3936    1.1559 H   0  0
    5.4468  -17.4783    0.4055 H   0  0
    0.3783  -19.9665    2.1216 H   0  0
    1.5545  -18.9595    1.2634 H   0  0
    1.9642  -19.6437    2.8462 H   0  0
    9.8970  -21.5588    0.8982 H   0  0
    9.0922  -23.1023    0.6919 H   0  0
   -0.5532  -28.7665    0.6762 H   0  0
    9.6991  -21.1661   -1.6201 H   0  0
   11.5220  -22.7341   -2.2108 H   0  0
   11.1842  -23.7074   -0.7684 H   0  0
   11.7836  -22.0472   -0.6023 H   0  0
    9.2172  -23.1390   -3.0697 H   0  0
    7.7943  -22.6601   -2.1439 H   0  0
    8.7360  -24.0777   -1.6464 H   0  0
  1  2  1  0
  2  4  1  0
  3  1  1  0
  3 30  1  0
  3 31  2  0
  4  5  2  0
  5  7  1  0
  5 35  1  0
  6  4  1  0
  6 13  2  0
  6 36  1  0
  7 12  2  0
  7 37  1  0
  8  1  2  0
  8 10  1  0
  8 38  1  0
  9  2  2  0
  9 39  1  0
 10 11  2  0
 10 40  1  0
 11  9  1  0
 11 41  1  0
 12 13  1  0
 13 14  1  0
 14 15  1  0
 14 42  1  0
 14 43  1  0
 15 16  1  0
 15 44  1  0
 15 45  1  0
 16 12  1  0
 16 17  1  0
 16 46  1  0
 17 19  1  0
 18 20  2  0
 18 21  1  0
 19 21  2  0
 19 23  1  0
 20 17  1  0
 21 24  1  0
 22 29  1  0
 23 22  2  0
 24 25  2  0
 25 22  1  0
 25 47  1  0
 26 20  1  0
 26 48  1  0
 26 49  1  0
 27 24  1  0
 27 50  1  0
 27 51  1  0
 27 52  1  0
 28 26  1  0
 28 53  1  0
 28 54  1  0
 28 55  1  0
 29 32  1  0
 29 56  1  0
 29 57  1  0
 30 58  1  0
 32 33  1  0
 32 34  1  0
 32 59  1  0
 33 60  1  0
 33 61  1  0
 33 62  1  0
 34 63  1  0
 34 64  1  0
 34 65  1  0
M  END
> <Name>
CHEMBL1801744

> <Clean Energy>
79.966698

> <chembl_id>
CHEMBL1801744

> <chembl_pref_name>
None

> <efficacy>
0.358695652

> <Forcefield>
MMFF

> <ForcefieldBase>
MMFF

> <ForcefieldFFML>
<?xml version="1.0" encoding="UTF-8"?>
<!DOCTYPE ffml SYSTEM "Ffml.dtd">
<ffml version="1.0">
<forcefield name="MMFF" derivedFrom="MMFF" base="MMFF">
<atomTypes>
<atomType
name="C100"
element="C"
mass="12.011"
annotation=""/>
<atomType
name="N101"
element="N"
mass="14.007"
annotation=""/>
<atomType
name="O102"
element="O"
mass="16"
annotation=""/>
<atomType
name="H103"
element="H"
mass="1.008"
annotation=""/>
</atomTypes>
<parameters>
</parameters>
</forcefield>
</ffml>

> <Initial Potential Energy>
239.93149

> <Initial RMS Gradient>
32.68406

> <Minimization Criteria>
STEEPD> Minimization exiting with gradient tolerance ( 3.0000000) satisfied.

> <CHARMm Energy>
95.03646

> <Potential Energy>
95.03646

> <RMS Gradient>
0.01403

> <Bond Energy>
8.04188

> <Angle Energy>
16.53644

> <STRBend>
-0.33825

> <Dihedral Energy>
9.26855

> <OOPLane>
0.14435

> <Van der Waals Energy>
58.80303

> <Electrostatic Energy>
2.58044

> <Hydrogen Bond Energy>
0

> <Solvation Free Energy>
0

> <HasGasteigerCharges>
true

> <REMARK99>
REMARK  99  MacroMolecule created from Mol2 file
REMARK  99  CHEMBL1801744
REMARK  99  PROTEIN
REMARK  99  GASTEIGER
REMARK  99
REMARK  99

$$$$
CHEMBL2260194
  SciTegic05292516403D

 63 68  0  0  0  0            999 V2000
   11.3988  -19.1990    2.2343 C   0  0
   11.0813  -19.6674    0.9529 C   0  0
   12.0990  -20.1149    0.0894 C   0  0
   12.7236  -19.1656    2.6856 C   0  0
   13.7362  -19.6224    1.8327 C   0  0
   13.4179  -20.0767    0.5596 C   0  0
   14.6255  -20.4888    0.0329 N   0  0
   15.6118  -20.1679    0.9411 C   0  0
   15.0794  -19.7154    2.0566 N   0  0
   14.8102  -21.1909   -1.2318 C   0  0
   14.2582  -22.5863   -1.1605 C   0  0
   14.7573  -23.4927   -0.2175 C   0  0
   14.1420  -24.7267   -0.0405 C   0  0
   13.0227  -25.0838   -0.8053 C   0  0
   12.5821  -24.2062   -1.8066 C   0  0
   13.1978  -22.9699   -1.9892 C   0  0
   12.2886  -26.3121   -0.4993 C   0  0
   10.9202  -26.2563   -0.1897 C   0  0
   10.2257  -27.4030    0.1915 C   0  0
   10.8948  -28.6289    0.2736 C   0  0
   12.2527  -28.6971   -0.0487 C   0  0
   12.9423  -27.5494   -0.4365 C   0  0
   10.2147  -29.8693    0.7151 C   0  0
    8.8945  -29.6146    0.9011 O   0  0
   10.7798  -30.9415    0.8645 O   0  0
    8.1364  -30.7412    1.3376 C   0  0
   17.0682  -20.3246    0.6951 C   0  0
    9.6756  -19.7946    0.5661 C   0  0
    9.1332  -19.4418   -0.6530 N   0  0
    8.7400  -20.3126    1.3417 N   0  0
    7.6462  -20.4957    0.5419 C   0  0
    7.8655  -19.9698   -0.7262 C   0  0
    6.9070  -20.0247   -1.7425 C   0  0
    5.6941  -20.6494   -1.4358 C   0  0
    5.4545  -21.1900   -0.1720 C   0  0
    6.4229  -21.1126    0.8340 C   0  0
    9.7603  -18.6450   -1.6799 C   0  0
   10.6037  -18.8740    2.9048 H   0  0
   11.8653  -20.5465   -0.8766 H   0  0
   12.9682  -18.8084    3.6804 H   0  0
   14.3117  -20.5903   -2.0018 H   0  0
   15.8749  -21.2200   -1.4826 H   0  0
   15.5902  -23.2244    0.4301 H   0  0
   14.5086  -25.3867    0.7445 H   0  0
   11.7288  -24.4707   -2.4280 H   0  0
   12.8098  -22.2929   -2.7470 H   0  0
   10.3918  -25.3040   -0.2064 H   0  0
    9.1712  -27.3166    0.4421 H   0  0
   12.7850  -29.6429    0.0136 H   0  0
   14.0018  -27.6251   -0.6733 H   0  0
    8.1662  -31.5365    0.5863 H   0  0
    7.0979  -30.4231    1.4646 H   0  0
    8.5084  -31.1042    2.3007 H   0  0
   17.6421  -19.9473    1.5475 H   0  0
   17.3740  -19.7607   -0.1913 H   0  0
   17.3294  -21.3773    0.5536 H   0  0
    7.0740  -19.5916   -2.7231 H   0  0
    4.9179  -20.6908   -2.1968 H   0  0
    4.5094  -21.6819    0.0415 H   0  0
    6.2452  -21.5369    1.8163 H   0  0
    8.9982  -18.0486   -2.1884 H   0  0
   10.2471  -19.3187   -2.3890 H   0  0
   10.4879  -17.9668   -1.2279 H   0  0
  1  2  2  0
  1 38  1  0
  2  3  1  0
  2 28  1  0
  3  6  2  0
  3 39  1  0
  4  1  1  0
  4 40  1  0
  5  4  2  0
  5  6  1  0
  6  7  1  0
  7  8  1  0
  7 10  1  0
  8  9  2  0
  8 27  1  0
  9  5  1  0
 10 11  1  0
 10 41  1  0
 10 42  1  0
 11 12  2  0
 12 13  1  0
 12 43  1  0
 13 14  2  0
 13 44  1  0
 14 15  1  0
 14 17  1  0
 15 16  2  0
 15 45  1  0
 16 11  1  0
 16 46  1  0
 17 18  2  0
 18 19  1  0
 18 47  1  0
 19 20  2  0
 19 48  1  0
 20 21  1  0
 20 23  1  0
 21 22  2  0
 21 49  1  0
 22 17  1  0
 22 50  1  0
 23 24  1  0
 23 25  2  0
 24 26  1  0
 26 51  1  0
 26 52  1  0
 26 53  1  0
 27 54  1  0
 27 55  1  0
 27 56  1  0
 28 29  1  0
 29 32  1  0
 29 37  1  0
 30 28  2  0
 31 30  1  0
 31 32  2  0
 32 33  1  0
 33 34  2  0
 33 57  1  0
 34 35  1  0
 34 58  1  0
 35 36  2  0
 35 59  1  0
 36 31  1  0
 36 60  1  0
 37 61  1  0
 37 62  1  0
 37 63  1  0
M  END
> <Name>
CHEMBL2260194

> <Clean Energy>
70.768898

> <chembl_id>
CHEMBL2260194

> <chembl_pref_name>
None

> <efficacy>
0.073

> <Forcefield>
MMFF

> <ForcefieldBase>
MMFF

> <ForcefieldFFML>
<?xml version="1.0" encoding="UTF-8"?>
<!DOCTYPE ffml SYSTEM "Ffml.dtd">
<ffml version="1.0">
<forcefield name="MMFF" derivedFrom="MMFF" base="MMFF">
<atomTypes>
<atomType
name="C100"
element="C"
mass="12.011"
annotation=""/>
<atomType
name="N101"
element="N"
mass="14.007"
annotation=""/>
<atomType
name="O102"
element="O"
mass="16"
annotation=""/>
<atomType
name="H103"
element="H"
mass="1.008"
annotation=""/>
</atomTypes>
<parameters>
</parameters>
</forcefield>
</ffml>

> <Initial Potential Energy>
678.32949

> <Initial RMS Gradient>
291.98974

> <Minimization Criteria>
STEEPD> Minimization exiting with gradient tolerance ( 3.0000000) satisfied.

> <CHARMm Energy>
98.38178

> <Potential Energy>
98.38178

> <RMS Gradient>
0.04163

> <Bond Energy>
6.97949

> <Angle Energy>
8.93176

> <STRBend>
-0.87314

> <Dihedral Energy>
12.93096

> <OOPLane>
0.1917

> <Van der Waals Energy>
74.42098

> <Electrostatic Energy>
-4.19998

> <Hydrogen Bond Energy>
0

> <Solvation Free Energy>
0

> <HasGasteigerCharges>
true

> <REMARK99>
REMARK  99  MacroMolecule created from Mol2 file
REMARK  99  CHEMBL2260194
REMARK  99  PROTEIN
REMARK  99  GASTEIGER
REMARK  99
REMARK  99

$$$$
CHEMBL1946952
  SciTegic05292516403D

 58 62  0  0  0  0            999 V2000
   -5.9618   -7.9394    0.3604 C   0  0
   -6.0119   -9.2766   -0.0922 C   0  0
   -4.8007   -9.8969   -0.4761 C   0  0
   -4.7602   -7.2127    0.4235 C   0  0
   -3.5868   -7.8289    0.0222 C   0  0
   -3.6156   -9.1643   -0.4059 C   0  0
   -2.3010   -9.5341   -0.7382 N   0  0
   -1.4443   -8.4155   -0.5683 C   0  0
   -2.2459   -7.3634   -0.0647 N   0  0
   -0.2594   -8.4125   -0.8598 O   0  0
   -1.8289   -6.0540    0.2111 C   0  0
   -1.8610  -10.7727   -1.3400 C   0  0
   -0.8706  -11.5594   -0.4984 C   0  0
   -1.1350  -11.8552    0.8455 C   0  0
   -0.2441  -12.6377    1.5882 C   0  0
    0.9183  -13.1435    0.9978 C   0  0
    1.2121  -12.8417   -0.3349 C   0  0
    0.3086  -12.0704   -1.0797 C   0  0
    2.2759  -13.3963   -1.0051 O   0  0
    3.5465  -12.7870   -0.7130 C   0  0  2  0  0  0
    3.8588  -11.6212   -1.6666 C   0  0
    5.0361  -10.9959   -1.4050 O   0  0
    3.0982  -11.2191   -2.5390 O   0  0
    4.5945  -13.8830   -0.8727 C   0  0
    1.9257  -14.1785    1.9428 Cl  0  0
   -2.0196   -3.9031    0.6131 O   0  0
   -2.7165   -5.0672    0.4324 N   0  0
   -0.6929   -4.1478    0.5394 C   0  0
   -0.4918   -5.5015    0.3039 C   0  0
    0.8532   -5.9267    0.2443 C   0  0
    1.8975   -4.9883    0.3846 C   0  0
    1.6303   -3.6337    0.5939 C   0  0
    0.3103   -3.1844    0.6844 C   0  0
    2.5738   -2.6516    0.7389 O   0  0
    3.9268   -3.0376    0.5289 C   0  0
   -7.3576  -10.0004   -0.1627 C   0  0
   -8.1907   -9.5055   -1.1265 F   0  0
   -7.2131  -11.3306   -0.4246 F   0  0
   -8.0747   -9.9164    0.9980 F   0  0
   -6.8799   -7.4435    0.6697 H   0  0
   -4.8065  -10.9247   -0.8245 H   0  0
   -4.7940   -6.1881    0.7788 H   0  0
   -2.7158  -11.4170   -1.5686 H   0  0
   -1.3905  -10.5065   -2.2947 H   0  0
   -2.0457  -11.4954    1.3205 H   0  0
   -0.4788  -12.8733    2.6238 H   0  0
    0.5288  -11.8756   -2.1291 H   0  0
    3.5701  -12.3935    0.3106 H   0  0
    5.4722  -11.3111   -0.5929 H   0  0
    5.5979  -13.5321   -0.6143 H   0  0
    4.6196  -14.2487   -1.9057 H   0  0
    4.3545  -14.7421   -0.2374 H   0  0
    1.1201   -6.9680    0.0993 H   0  0
    2.9199   -5.3583    0.3261 H   0  0
    0.0749   -2.1363    0.8564 H   0  0
    4.5458   -2.1392    0.6152 H   0  0
    4.0740   -3.4450   -0.4770 H   0  0
    4.2593   -3.7426    1.2979 H   0  0
  1  2  2  0
  1 40  1  0
  2  3  1  0
  2 36  1  0
  3  6  2  0
  3 41  1  0
  4  1  1  0
  4 42  1  0
  5  4  2  0
  5  6  1  0
  6  7  1  0
  7  8  1  0
  7 12  1  0
  8  9  1  0
  8 10  2  0
  9  5  1  0
  9 11  1  0
 11 29  1  0
 12 13  1  0
 12 43  1  0
 12 44  1  0
 13 14  2  0
 14 15  1  0
 14 45  1  0
 15 16  2  0
 15 46  1  0
 16 17  1  0
 16 25  1  0
 17 18  2  0
 17 19  1  0
 18 13  1  0
 18 47  1  0
 19 20  1  0
 20 21  1  0
 20 24  1  0
 20 48  1  0
 21 22  1  0
 21 23  2  0
 22 49  1  0
 24 50  1  0
 24 51  1  0
 24 52  1  0
 26 27  1  0
 27 11  2  0
 28 26  1  0
 28 29  2  0
 29 30  1  0
 30 31  2  0
 30 53  1  0
 31 32  1  0
 31 54  1  0
 32 33  2  0
 32 34  1  0
 33 28  1  0
 33 55  1  0
 34 35  1  0
 35 56  1  0
 35 57  1  0
 35 58  1  0
 36 37  1  0
 36 38  1  0
 36 39  1  0
M  END
> <Name>
CHEMBL1946952

> <Clean Energy>
88.716904

> <chembl_id>
CHEMBL1946952

> <chembl_pref_name>
None

> <efficacy>
0.04

> <Forcefield>
MMFF

> <ForcefieldBase>
MMFF

> <ForcefieldFFML>
<?xml version="1.0" encoding="UTF-8"?>
<!DOCTYPE ffml SYSTEM "Ffml.dtd">
<ffml version="1.0">
<forcefield name="MMFF" derivedFrom="MMFF" base="MMFF">
<atomTypes>
<atomType
name="C100"
element="C"
mass="12.011"
annotation=""/>
<atomType
name="N101"
element="N"
mass="14.007"
annotation=""/>
<atomType
name="O102"
element="O"
mass="16"
annotation=""/>
<atomType
name="Cl103"
element="Cl"
mass="35.453"
annotation=""/>
<atomType
name="F104"
element="F"
mass="18.998"
annotation=""/>
<atomType
name="H105"
element="H"
mass="1.008"
annotation=""/>
</atomTypes>
<parameters>
</parameters>
</forcefield>
</ffml>

> <Initial Potential Energy>
214.29444

> <Initial RMS Gradient>
33.39449

> <Minimization Criteria>
CONJUG> Minimization exiting with gradient tolerance ( 0.0100000) satisfied.

> <CHARMm Energy>
95.77042

> <Potential Energy>
95.77042

> <RMS Gradient>
0.00899

> <Bond Energy>
10.45501

> <Angle Energy>
44.28282

> <STRBend>
-1.94077

> <Dihedral Energy>
6.53939

> <OOPLane>
0.39991

> <Van der Waals Energy>
64.04104

> <Electrostatic Energy>
-28.00698

> <Hydrogen Bond Energy>
0

> <Solvation Free Energy>
0

> <HasGasteigerCharges>
true

> <REMARK99>
REMARK  99  MacroMolecule created from Mol2 file
REMARK  99  CHEMBL1946952
REMARK  99  PROTEIN
REMARK  99  GASTEIGER
REMARK  99
REMARK  99

$$$$
CHEMBL180430
  SciTegic05292516403D

 53 55  0  0  0  0            999 V2000
    7.4494    0.6910    0.6854 C   0  0
    7.1159   -0.7459    0.6581 C   0  0
    6.5663    1.5957    0.2287 C   0  0
    5.2678    1.1642   -0.2363 C   0  0
    4.9303   -0.1312   -0.1895 C   0  0
    5.8559   -1.1042    0.2569 O   0  0
    8.7585    1.0924    1.2360 C   0  0
    3.6056   -0.6576   -0.5865 C   0  0
    7.9581   -1.5864    0.9687 O   0  0
   -3.4230   -2.7347    0.1318 N   0  0
    6.8514    3.3158    0.2146 S   0  0
    8.9332    1.4550    2.3891 O   0  0
    2.4353    0.1019   -0.4236 C   0  0
    3.4757   -1.9558   -1.1029 C   0  0
    9.7016    1.0087    0.2620 O   0  0
    1.0635   -1.7218   -1.2397 C   0  0
    2.2175   -2.4780   -1.4355 C   0  0
    1.1782   -0.4185   -0.7588 C   0  0
   -0.1216   -2.3370   -1.5506 O   0  0
   -2.2462   -3.0442   -0.7031 C   0  0
   -1.2364   -1.8959   -0.7661 C   0  0
   -4.3562   -1.8242   -0.5603 C   0  0
   -4.1190   -3.9843    0.4973 C   0  0
    7.7024    3.4954   -1.3736 C   0  0
   11.0165    1.3541    0.7058 C   0  0
   -5.5577   -1.4794    0.3219 C   0  0
   -5.3114   -3.7139    1.4157 C   0  0
   -6.2890   -2.7345    0.7799 C   0  0
    4.5782    1.9200   -0.6011 H   0  0
    2.4739    1.1074   -0.0107 H   0  0
    4.3526   -2.5840   -1.2472 H   0  0
    2.1374   -3.4906   -1.8245 H   0  0
    0.3026    0.2109   -0.6255 H   0  0
   -1.7125   -3.9084   -0.2837 H   0  0
   -2.5410   -3.3488   -1.7163 H   0  0
   -1.6706   -1.0139   -1.2481 H   0  0
   -0.9347   -1.6460    0.2599 H   0  0
   -3.8527   -0.8845   -0.8113 H   0  0
   -4.7058   -2.2674   -1.5020 H   0  0
   -4.4559   -4.5187   -0.4009 H   0  0
   -3.4291   -4.6485    1.0322 H   0  0
    7.9239    4.5524   -1.5439 H   0  0
    7.0684    3.1377   -2.1896 H   0  0
    8.6432    2.9400   -1.3779 H   0  0
   11.0470    2.3990    1.0301 H   0  0
   11.7009    1.2325   -0.1382 H   0  0
   11.3372    0.6868    1.5120 H   0  0
   -5.2188   -0.9126    1.1984 H   0  0
   -6.2478   -0.8313   -0.2300 H   0  0
   -5.8255   -4.6550    1.6413 H   0  0
   -4.9547   -3.3076    2.3707 H   0  0
   -7.0779   -2.4723    1.4933 H   0  0
   -6.7763   -3.2093   -0.0804 H   0  0
  2  1  1  0
  3  1  2  0
  4  3  1  0
  4 29  1  0
  5  4  2  0
  6  2  1  0
  6  5  1  0
  7  1  1  0
  8  5  1  0
  9  2  2  0
 10 20  1  0
 11  3  1  0
 12  7  2  0
 13  8  2  0
 13 30  1  0
 14  8  1  0
 14 31  1  0
 15  7  1  0
 16 17  1  0
 16 18  2  0
 17 14  2  0
 17 32  1  0
 18 13  1  0
 18 33  1  0
 19 16  1  0
 20 21  1  0
 20 34  1  0
 20 35  1  0
 21 19  1  0
 21 36  1  0
 21 37  1  0
 22 10  1  0
 22 38  1  0
 22 39  1  0
 23 10  1  0
 23 40  1  0
 23 41  1  0
 24 11  1  0
 24 42  1  0
 24 43  1  0
 24 44  1  0
 25 15  1  0
 25 45  1  0
 25 46  1  0
 25 47  1  0
 26 22  1  0
 26 48  1  0
 26 49  1  0
 27 23  1  0
 27 50  1  0
 27 51  1  0
 28 26  1  0
 28 27  1  0
 28 52  1  0
 28 53  1  0
M  END
> <Name>
CHEMBL180430

> <Clean Energy>
23.778999

> <chembl_id>
CHEMBL180430

> <chembl_pref_name>
None

> <efficacy>
0.17

> <Forcefield>
MMFF

> <ForcefieldBase>
MMFF

> <ForcefieldFFML>
<?xml version="1.0" encoding="UTF-8"?>
<!DOCTYPE ffml SYSTEM "Ffml.dtd">
<ffml version="1.0">
<forcefield name="MMFF" derivedFrom="MMFF" base="MMFF">
<atomTypes>
<atomType
name="C100"
element="C"
mass="12.011"
annotation=""/>
<atomType
name="O101"
element="O"
mass="16"
annotation=""/>
<atomType
name="N102"
element="N"
mass="14.007"
annotation=""/>
<atomType
name="S103"
element="S"
mass="32.066"
annotation=""/>
<atomType
name="H104"
element="H"
mass="1.008"
annotation=""/>
</atomTypes>
<parameters>
</parameters>
</forcefield>
</ffml>

> <Initial Potential Energy>
111.42628

> <Initial RMS Gradient>
20.50206

> <Minimization Criteria>
CONJUG> Minimization exiting with gradient tolerance ( 0.0100000) satisfied.

> <CHARMm Energy>
32.09347

> <Potential Energy>
32.09347

> <RMS Gradient>
0.00923

> <Bond Energy>
4.52922

> <Angle Energy>
21.01259

> <STRBend>
0.45176

> <Dihedral Energy>
-0.75709

> <OOPLane>
0.03007

> <Van der Waals Energy>
52.22648

> <Electrostatic Energy>
-45.39957

> <Hydrogen Bond Energy>
0

> <Solvation Free Energy>
0

> <HasGasteigerCharges>
true

> <REMARK99>
REMARK  99  MacroMolecule created from Mol2 file
REMARK  99  CHEMBL180430
REMARK  99  PROTEIN
REMARK  99  GASTEIGER
REMARK  99
REMARK  99

$$$$
CHEMBL2338474
  SciTegic05292516403D

 46 49  0  0  0  0            999 V2000
   18.3733  -20.7127    0.3719 C   0  0
   17.7844  -21.1332   -0.8227 C   0  0
   17.0975  -20.2120   -1.6222 C   0  0
   16.8465  -18.9249   -1.1430 C   0  0
   17.3254  -18.5414    0.1102 C   0  0
   18.1315  -19.4226    0.8408 C   0  0
   16.0559  -16.0874    0.1271 S   0  0
   16.9257  -17.3586    0.7878 N   0  0
   14.3552  -16.5904    0.1313 C   0  0
   13.4060  -15.8279   -0.5543 C   0  0
   12.0472  -16.1621   -0.4647 C   0  0
   11.6159  -17.2527    0.3053 C   0  0
   12.5796  -18.0188    0.9785 C   0  0
   13.9399  -17.6912    0.8957 C   0  0
   17.7525  -22.4763   -1.1305 O   0  0
   15.5623  -22.5929    0.0057 C   0  0
   16.6581  -23.1665   -0.6383 C   0  0
   16.6475  -24.5459   -0.8093 C   0  0
   14.4916  -23.2719    0.4649 N   0  0
   16.5047  -15.8932   -1.2339 O   0  0
   16.1582  -15.0338    1.1154 O   0  0
   10.1370  -17.5469    0.4477 C   0  0
   13.7865  -14.4277   -1.4884 Cl  0  0
   16.4251  -20.6674   -3.1457 Cl  0  0
   19.3099  -21.7857    1.3470 Cl  0  0
   15.5478  -25.2885   -0.3472 C   0  0
   14.4855  -24.5943    0.2833 C   0  0
   13.3847  -25.3008    0.7339 C   0  0
   13.3039  -26.6782    0.5807 C   0  0
   14.3477  -27.3643   -0.0299 C   0  0
   15.4701  -26.6804   -0.4948 C   0  0
    9.4123  -17.1922   -0.6516 F   0  0
    9.8824  -18.8684    0.6582 F   0  0
    9.5705  -16.8759    1.4908 F   0  0
   16.2458  -18.2572   -1.7536 H   0  0
   18.5314  -19.1267    1.8085 H   0  0
   17.4327  -17.0669    1.6248 H   0  0
   11.3088  -15.5543   -0.9881 H   0  0
   12.2711  -18.8664    1.5923 H   0  0
   14.6501  -18.2829    1.4675 H   0  0
   15.4767  -21.5284    0.1887 H   0  0
   17.4858  -25.0324   -1.3015 H   0  0
   12.5730  -24.7547    1.2093 H   0  0
   12.4244  -27.2119    0.9333 H   0  0
   14.2894  -28.4434   -0.1488 H   0  0
   16.2674  -27.2555   -0.9692 H   0  0
  1  2  1  0
  1  6  2  0
  1 25  1  0
  2  3  2  0
  2 15  1  0
  3  4  1  0
  3 24  1  0
  4  5  2  0
  4 35  1  0
  5  6  1  0
  5  8  1  0
  6 36  1  0
  7  8  1  0
  7  9  1  0
  7 20  2  0
  7 21  2  0
  8 37  1  0
  9 10  1  0
  9 14  2  0
 10 11  2  0
 10 23  1  0
 11 12  1  0
 11 38  1  0
 12 13  2  0
 12 22  1  0
 13 14  1  0
 13 39  1  0
 14 40  1  0
 15 17  1  0
 16 17  1  0
 16 19  2  0
 16 41  1  0
 17 18  2  0
 18 26  1  0
 18 42  1  0
 22 32  1  0
 22 33  1  0
 22 34  1  0
 26 27  1  0
 27 19  1  0
 27 28  2  0
 28 29  1  0
 28 43  1  0
 29 30  2  0
 29 44  1  0
 30 31  1  0
 30 45  1  0
 31 26  2  0
 31 46  1  0
M  END
> <Name>
CHEMBL2338474

> <Clean Energy>
69.559799

> <chembl_id>
CHEMBL2338474

> <chembl_pref_name>
None

> <efficacy>
0.21

> <Forcefield>
MMFF

> <ForcefieldBase>
MMFF

> <ForcefieldFFML>
<?xml version="1.0" encoding="UTF-8"?>
<!DOCTYPE ffml SYSTEM "Ffml.dtd">
<ffml version="1.0">
<forcefield name="MMFF" derivedFrom="MMFF" base="MMFF">
<atomTypes>
<atomType
name="C100"
element="C"
mass="12.011"
annotation=""/>
<atomType
name="S101"
element="S"
mass="32.066"
annotation=""/>
<atomType
name="N102"
element="N"
mass="14.007"
annotation=""/>
<atomType
name="O103"
element="O"
mass="16"
annotation=""/>
<atomType
name="Cl104"
element="Cl"
mass="35.453"
annotation=""/>
<atomType
name="F105"
element="F"
mass="18.998"
annotation=""/>
<atomType
name="H106"
element="H"
mass="1.008"
annotation=""/>
</atomTypes>
<parameters>
</parameters>
</forcefield>
</ffml>

> <Initial Potential Energy>
613.5206

> <Initial RMS Gradient>
213.58719

> <Minimization Criteria>
STEEPD> Minimization exiting with gradient tolerance ( 3.0000000) satisfied.

> <CHARMm Energy>
52.91749

> <Potential Energy>
52.91749

> <RMS Gradient>
0.11821

> <Bond Energy>
5.82397

> <Angle Energy>
17.5026

> <STRBend>
0.7852

> <Dihedral Energy>
7.58095

> <OOPLane>
0.38361

> <Van der Waals Energy>
68.52665

> <Electrostatic Energy>
-47.68549

> <Hydrogen Bond Energy>
0

> <Solvation Free Energy>
0

> <HasGasteigerCharges>
true

> <REMARK99>
REMARK  99  MacroMolecule created from Mol2 file
REMARK  99  CHEMBL2338474
REMARK  99  PROTEIN
REMARK  99  GASTEIGER
REMARK  99
REMARK  99

$$$$
CHEMBL486365
  SciTegic05292516403D

 41 42  0  0  0  0            999 V2000
    0.7180  -13.2320    0.6731 C   0  0
    0.5005  -13.1711   -0.7003 C   0  0
    1.5577  -12.9046   -1.5681 C   0  0
    2.8469  -12.7043   -1.0624 C   0  0
    3.0777  -12.7870    0.3117 C   0  0
    2.0067  -13.0360    1.1759 C   0  0
    4.2818  -12.5929    0.9325 O   0  0
   -1.0806  -13.4172   -1.3290 Cl  0  0
    5.4804  -12.7691    0.1531 C   0  0  1  0  0  0
    5.9593  -11.4146   -0.3721 C   0  0
    6.5577  -13.3480    1.0838 C   0  0
    7.3436  -14.4702    0.4342 C   0  0
    6.9038  -15.8118    0.4112 C   0  0
    7.7065  -16.7781   -0.2265 C   0  0
    8.9112  -16.4319   -0.8372 C   0  0
    9.3352  -15.1099   -0.8260 C   0  0
    8.5572  -14.1379   -0.1984 C   0  0
    5.2888  -10.3614    0.1586 O   0  0
    6.8688  -11.2661   -1.1753 O   0  0
    5.5965  -16.2782    1.0184 C   0  0
    4.5197  -16.5173   -0.0434 C   0  0
    3.2023  -16.9413    0.5867 C   0  0
   -0.1071  -13.4280    1.3539 H   0  0
    1.3853  -12.8439   -2.6401 H   0  0
    3.6359  -12.4732   -1.7722 H   0  0
    2.1744  -13.0866    2.2495 H   0  0
    5.3024  -13.4326   -0.6999 H   0  0
    7.2590  -12.5645    1.4032 H   0  0
    6.1228  -13.7060    2.0239 H   0  0
    7.3882  -17.8189   -0.2538 H   0  0
    9.5115  -17.1932   -1.3279 H   0  0
   10.2673  -14.8303   -1.3100 H   0  0
    8.9054  -13.1055   -0.2135 H   0  0
    4.5899  -10.6718    0.7745 H   0  0
    5.7819  -17.2073    1.5740 H   0  0
    5.2286  -15.5693    1.7651 H   0  0
    4.3581  -15.6091   -0.6335 H   0  0
    4.8441  -17.2940   -0.7463 H   0  0
    2.4444  -17.0959   -0.1876 H   0  0
    2.8318  -16.1766    1.2764 H   0  0
    3.3175  -17.8776    1.1418 H   0  0
  1  2  2  0
  1 23  1  0
  2  3  1  0
  2  8  1  0
  3  4  2  0
  3 24  1  0
  4  5  1  0
  4 25  1  0
  5  6  2  0
  5  7  1  0
  6  1  1  0
  6 26  1  0
  7  9  1  0
  9 10  1  0
  9 11  1  0
  9 27  1  0
 10 18  1  0
 10 19  2  0
 11 12  1  0
 11 28  1  0
 11 29  1  0
 12 13  2  0
 13 14  1  0
 13 20  1  0
 14 15  2  0
 14 30  1  0
 15 16  1  0
 15 31  1  0
 16 17  2  0
 16 32  1  0
 17 12  1  0
 17 33  1  0
 18 34  1  0
 20 21  1  0
 20 35  1  0
 20 36  1  0
 21 22  1  0
 21 37  1  0
 21 38  1  0
 22 39  1  0
 22 40  1  0
 22 41  1  0
M  END
> <Name>
CHEMBL486365

> <Clean Energy>
23.197001

> <chembl_id>
CHEMBL486365

> <chembl_pref_name>
None

> <efficacy>
0.28

> <Forcefield>
MMFF

> <ForcefieldBase>
MMFF

> <ForcefieldFFML>
<?xml version="1.0" encoding="UTF-8"?>
<!DOCTYPE ffml SYSTEM "Ffml.dtd">
<ffml version="1.0">
<forcefield name="MMFF" derivedFrom="MMFF" base="MMFF">
<atomTypes>
<atomType
name="C100"
element="C"
mass="12.011"
annotation=""/>
<atomType
name="O101"
element="O"
mass="16"
annotation=""/>
<atomType
name="Cl102"
element="Cl"
mass="35.453"
annotation=""/>
<atomType
name="H103"
element="H"
mass="1.008"
annotation=""/>
</atomTypes>
<parameters>
</parameters>
</forcefield>
</ffml>

> <Initial Potential Energy>
115.17185

> <Initial RMS Gradient>
28.07116

> <Minimization Criteria>
CONJUG> Minimization exiting with gradient tolerance ( 0.0100000) satisfied.

> <CHARMm Energy>
51.54539

> <Potential Energy>
51.54539

> <RMS Gradient>
0.00998

> <Bond Energy>
4.67002

> <Angle Energy>
9.89254

> <STRBend>
0.48375

> <Dihedral Energy>
-1.92008

> <OOPLane>
0.03155

> <Van der Waals Energy>
42.46457

> <Electrostatic Energy>
-4.07697

> <Hydrogen Bond Energy>
0

> <Solvation Free Energy>
0

> <HasGasteigerCharges>
true

> <REMARK99>
REMARK  99  MacroMolecule created from Mol2 file
REMARK  99  CHEMBL486365
REMARK  99  PROTEIN
REMARK  99  GASTEIGER
REMARK  99
REMARK  99

$$$$
CHEMBL486350
  SciTegic05292516403D

 35 36  0  0  0  0            999 V2000
   13.1547    3.0057   -0.8271 C   0  0
   12.9104    1.8510   -1.5718 C   0  0
   13.6780    0.7050   -1.3748 C   0  0
   14.7082    0.7167   -0.4345 C   0  0
   14.9746    1.8813    0.2919 C   0  0
   14.1818    3.0263    0.1292 C   0  0
   15.9634    1.8937    1.2386 O   0  0
   11.6461    1.8375   -2.7385 Cl  0  0
   17.2826    1.7396    0.6838 C   0  0  1  0  0  0
   18.0801    3.0255    0.9383 C   0  0
   17.9396    0.5569    1.4090 C   0  0
   19.1454    0.0043    0.6872 C   0  0
   20.4367    0.2341    1.1822 C   0  0
   21.5530   -0.2504    0.4988 C   0  0
   21.3887   -0.9699   -0.6829 C   0  0
   20.1091   -1.2101   -1.1799 C   0  0
   18.9913   -0.7275   -0.4982 C   0  0
   19.2180    3.1226    0.2043 O   0  0
   17.7535    3.9154    1.7116 O   0  0
   14.4452    4.2765    0.9198 C   0  0
   12.5374    3.8883   -0.9852 H   0  0
   13.4723   -0.1989   -1.9417 H   0  0
   15.2846   -0.1871   -0.2623 H   0  0
   17.2445    1.5901   -0.4038 H   0  0
   18.2121    0.8471    2.4326 H   0  0
   17.2142   -0.2585    1.5324 H   0  0
   20.5852    0.7955    2.1037 H   0  0
   22.5517   -0.0706    0.8908 H   0  0
   22.2579   -1.3519   -1.2127 H   0  0
   19.9833   -1.7825   -2.0960 H   0  0
   18.0007   -0.9372   -0.8968 H   0  0
   19.4138    2.3515   -0.3650 H   0  0
   13.5806    4.9485    0.8961 H   0  0
   15.3053    4.8087    0.5025 H   0  0
   14.6384    4.0408    1.9712 H   0  0
  1  2  2  0
  1 21  1  0
  2  3  1  0
  2  8  1  0
  3  4  2  0
  3 22  1  0
  4  5  1  0
  4 23  1  0
  5  6  2  0
  5  7  1  0
  6  1  1  0
  6 20  1  0
  7  9  1  0
  9 10  1  0
  9 11  1  0
  9 24  1  0
 10 18  1  0
 10 19  2  0
 11 12  1  0
 11 25  1  0
 11 26  1  0
 12 13  2  0
 13 14  1  0
 13 27  1  0
 14 15  2  0
 14 28  1  0
 15 16  1  0
 15 29  1  0
 16 17  2  0
 16 30  1  0
 17 12  1  0
 17 31  1  0
 18 32  1  0
 20 33  1  0
 20 34  1  0
 20 35  1  0
M  END
> <Name>
CHEMBL486350

> <Clean Energy>
11.8053

> <chembl_id>
CHEMBL486350

> <chembl_pref_name>
None

> <efficacy>
0.34

> <Forcefield>
MMFF

> <ForcefieldBase>
MMFF

> <ForcefieldFFML>
<?xml version="1.0" encoding="UTF-8"?>
<!DOCTYPE ffml SYSTEM "Ffml.dtd">
<ffml version="1.0">
<forcefield name="MMFF" derivedFrom="MMFF" base="MMFF">
<atomTypes>
<atomType
name="C100"
element="C"
mass="12.011"
annotation=""/>
<atomType
name="O101"
element="O"
mass="16"
annotation=""/>
<atomType
name="Cl102"
element="Cl"
mass="35.453"
annotation=""/>
<atomType
name="H103"
element="H"
mass="1.008"
annotation=""/>
</atomTypes>
<parameters>
</parameters>
</forcefield>
</ffml>

> <Initial Potential Energy>
111.2043

> <Initial RMS Gradient>
30.36357

> <Minimization Criteria>
CONJUG> Minimization exiting with gradient tolerance ( 0.0100000) satisfied.

> <CHARMm Energy>
55.75525

> <Potential Energy>
55.75525

> <RMS Gradient>
0.00806

> <Bond Energy>
3.83867

> <Angle Energy>
5.19789

> <STRBend>
0.46294

> <Dihedral Energy>
5.7893

> <OOPLane>
0.05876

> <Van der Waals Energy>
37.97755

> <Electrostatic Energy>
2.43014

> <Hydrogen Bond Energy>
0

> <Solvation Free Energy>
0

> <HasGasteigerCharges>
true

> <REMARK99>
REMARK  99  MacroMolecule created from Mol2 file
REMARK  99  CHEMBL486350
REMARK  99  PROTEIN
REMARK  99  GASTEIGER
REMARK  99
REMARK  99

$$$$
CHEMBL3263233
  SciTegic05292516403D

 52 54  0  0  0  0            999 V2000
    0.3423  -13.0543   -1.0513 C   0  0
    0.1993  -14.3037   -1.6533 C   0  0
    1.1665  -15.3011   -1.4756 C   0  0
    2.2995  -15.0591   -0.6957 C   0  0
    2.4336  -13.7869   -0.0936 C   0  0
    1.4598  -12.7920   -0.2654 C   0  0
    3.6562  -13.4741    0.6812 C   0  0
    4.2999  -12.3026    0.3411 N   0  0
    4.1055  -14.2909    1.4784 O   0  0
    5.6435  -12.0401    0.8142 C   0  0
    6.6430  -12.9183    0.0655 C   0  0
    8.0636  -12.7586    0.5889 C   0  0
    8.9927  -13.7282   -0.1033 C   0  0
   10.2945  -13.4051    0.0687 O   0  0
    8.6412  -14.7091   -0.7407 O   0  0
    3.3318  -16.0138   -0.5200 N   0  0
    3.4850  -17.2378   -1.1375 C   0  0
    4.7824  -17.8882   -0.8164 C   0  0
    2.7211  -17.7817   -1.9223 O   0  0
    4.8497  -19.1026   -0.1088 C   0  0
    6.1251  -19.6591    0.1171 C   0  0
    7.2864  -19.0254   -0.3338 C   0  0
    7.1984  -17.8197   -1.0223 C   0  0
    5.9502  -17.2511   -1.2684 C   0  0
    3.6684  -19.7834    0.4382 C   0  0
    2.9203  -19.2027    1.4750 C   0  0
    1.8209  -19.8664    2.0225 C   0  0
    1.4574  -21.1222    1.5432 C   0  0
    2.1871  -21.7132    0.5141 C   0  0
    3.2851  -21.0481   -0.0345 C   0  0
   -0.4183  -12.2896   -1.1956 H   0  0
   -0.6722  -14.5130   -2.2688 H   0  0
    1.0004  -16.2608   -1.9590 H   0  0
    1.5621  -11.8211    0.2127 H   0  0
    3.9123  -11.6967   -0.3726 H   0  0
    5.8535  -10.9789    0.6481 H   0  0
    5.6817  -12.2394    1.8908 H   0  0
    6.3458  -13.9717    0.1446 H   0  0
    6.6117  -12.6810   -1.0061 H   0  0
    8.4056  -11.7355    0.3984 H   0  0
    8.1055  -12.9578    1.6648 H   0  0
   10.4500  -12.6279    0.6380 H   0  0
    4.0571  -15.7520    0.1495 H   0  0
    6.2199  -20.5942    0.6681 H   0  0
    8.2597  -19.4718   -0.1409 H   0  0
    8.1003  -17.3175   -1.3671 H   0  0
    5.8933  -16.3158   -1.8206 H   0  0
    3.1953  -18.2267    1.8702 H   0  0
    1.2558  -19.3981    2.8230 H   0  0
    0.6043  -21.6444    1.9688 H   0  0
    1.9022  -22.6940    0.1386 H   0  0
    3.8400  -21.5211   -0.8424 H   0  0
  1  2  2  0
  1 31  1  0
  2  3  1  0
  2 32  1  0
  3  4  2  0
  3 33  1  0
  4  5  1  0
  4 16  1  0
  5  6  2  0
  5  7  1  0
  6  1  1  0
  6 34  1  0
  7  8  1  0
  7  9  2  0
  8 10  1  0
  8 35  1  0
 10 11  1  0
 10 36  1  0
 10 37  1  0
 11 12  1  0
 11 38  1  0
 11 39  1  0
 12 13  1  0
 12 40  1  0
 12 41  1  0
 13 14  1  0
 13 15  2  0
 14 42  1  0
 16 17  1  0
 16 43  1  0
 17 18  1  0
 17 19  2  0
 18 20  2  0
 20 21  1  0
 20 25  1  0
 21 22  2  0
 21 44  1  0
 22 23  1  0
 22 45  1  0
 23 24  2  0
 23 46  1  0
 24 18  1  0
 24 47  1  0
 25 26  2  0
 26 27  1  0
 26 48  1  0
 27 28  2  0
 27 49  1  0
 28 29  1  0
 28 50  1  0
 29 30  2  0
 29 51  1  0
 30 25  1  0
 30 52  1  0
M  END
> <Name>
CHEMBL3263233

> <Clean Energy>
11.956

> <chembl_id>
CHEMBL3263233

> <chembl_pref_name>
None

> <efficacy>
0.427350427

> <Forcefield>
MMFF

> <ForcefieldBase>
MMFF

> <ForcefieldFFML>
<?xml version="1.0" encoding="UTF-8"?>
<!DOCTYPE ffml SYSTEM "Ffml.dtd">
<ffml version="1.0">
<forcefield name="MMFF" derivedFrom="MMFF" base="MMFF">
<atomTypes>
<atomType
name="C100"
element="C"
mass="12.011"
annotation=""/>
<atomType
name="N101"
element="N"
mass="14.007"
annotation=""/>
<atomType
name="O102"
element="O"
mass="16"
annotation=""/>
<atomType
name="H103"
element="H"
mass="1.008"
annotation=""/>
</atomTypes>
<parameters>
</parameters>
</forcefield>
</ffml>

> <Initial Potential Energy>
259.73298

> <Initial RMS Gradient>
69.9492

> <Minimization Criteria>
STEEPD> Minimization exiting with gradient tolerance ( 3.0000000) satisfied.

> <CHARMm Energy>
32.21138

> <Potential Energy>
32.21138

> <RMS Gradient>
0.01045

> <Bond Energy>
6.24854

> <Angle Energy>
7.18342

> <STRBend>
0.55023

> <Dihedral Energy>
12.51266

> <OOPLane>
0.44607

> <Van der Waals Energy>
59.50446

> <Electrostatic Energy>
-54.23399

> <Hydrogen Bond Energy>
0

> <Solvation Free Energy>
0

> <HasGasteigerCharges>
true

> <REMARK99>
REMARK  99  MacroMolecule created from Mol2 file
REMARK  99  CHEMBL3263233
REMARK  99  PROTEIN
REMARK  99  GASTEIGER
REMARK  99
REMARK  99

$$$$
CHEMBL2113104
  SciTegic05292516403D

 54 54  0  0  0  0            999 V2000
   -3.5550  -13.7015    0.0600 C   0  0
   -3.3706  -15.0101    0.5206 C   0  0
   -2.4473  -12.9311   -0.6357 C   0  0  1  0  0  0
   -0.7832  -11.0231   -0.4002 C   0  0
   -2.1429  -15.6081    0.4067 O   0  0
   -2.9932  -12.2597   -1.7820 O   0  0
   -4.8117  -13.0990    0.2698 C   0  0
   -1.7786  -11.9098    0.3059 C   0  0
   -4.3997  -15.6933    1.1784 C   0  0
   -2.1409  -16.5647   -0.6610 C   0  0
   -0.7724  -17.2416   -0.7203 C   0  0
    1.7047  -16.9797   -1.1185 C   0  0
    0.3649  -16.2528   -0.9940 C   0  0
   -5.8522  -13.7897    0.8973 C   0  0
    2.8502  -16.0087   -1.3516 C   0  0
   -5.6459  -15.0899    1.3516 C   0  0
    0.5358  -10.8979   -0.1875 C   0  0
    1.3910  -11.6561    0.7859 C   0  0
    2.7175  -12.0617    0.1363 C   0  0
    3.6350  -12.7722    1.1287 C   0  0
    4.9633  -13.1307    0.5043 C   0  0
    5.6368  -13.9865    1.3264 O   0  0
    5.3933  -12.7047   -0.5588 O   0  0
    6.9056  -14.3940    0.8175 C   0  0
   -1.6880  -13.6159   -1.0283 H   0  0
   -1.2265  -10.3843   -1.1662 H   0  0
   -3.6916  -12.8297   -2.1492 H   0  0
   -4.9679  -12.0722   -0.0569 H   0  0
   -1.3256  -12.4308    1.1560 H   0  0
   -2.5422  -11.2427    0.7277 H   0  0
   -4.2194  -16.6919    1.5649 H   0  0
   -2.9035  -17.3342   -0.4897 H   0  0
   -2.3513  -16.0643   -1.6146 H   0  0
   -0.5792  -17.7432    0.2357 H   0  0
   -0.7903  -18.0115   -1.5003 H   0  0
    1.9029  -17.5549   -0.2066 H   0  0
    1.6639  -17.6933   -1.9496 H   0  0
    0.4226  -15.5158   -0.1839 H   0  0
    0.1591  -15.7005   -1.9190 H   0  0
   -6.8178  -13.3089    1.0425 H   0  0
    3.7951  -16.5521   -1.4493 H   0  0
    2.9459  -15.3136   -0.5128 H   0  0
    2.6950  -15.4271   -2.2657 H   0  0
   -6.4491  -15.6251    1.8538 H   0  0
    1.0598  -10.1538   -0.7889 H   0  0
    1.5906  -11.0085    1.6478 H   0  0
    0.8813  -12.5514    1.1559 H   0  0
    2.5278  -12.7155   -0.7250 H   0  0
    3.2266  -11.1714   -0.2558 H   0  0
    3.8315  -12.1274    1.9921 H   0  0
    3.1517  -13.6925    1.4755 H   0  0
    7.3543  -15.0835    1.5379 H   0  0
    7.5698  -13.5315    0.7052 H   0  0
    6.7869  -14.9199   -0.1351 H   0  0
  2  1  1  0
  3  1  1  0
  3 25  1  0
  4  8  1  0
  4 17  2  0
  4 26  1  0
  5  2  1  0
  6  3  1  0
  6 27  1  0
  7  1  2  0
  7 28  1  0
  8  3  1  0
  8 29  1  0
  8 30  1  0
  9  2  2  0
  9 16  1  0
  9 31  1  0
 10  5  1  0
 10 32  1  0
 10 33  1  0
 11 10  1  0
 11 34  1  0
 11 35  1  0
 12 13  1  0
 12 36  1  0
 12 37  1  0
 13 11  1  0
 13 38  1  0
 13 39  1  0
 14  7  1  0
 14 40  1  0
 15 12  1  0
 15 41  1  0
 15 42  1  0
 15 43  1  0
 16 14  2  0
 16 44  1  0
 17 18  1  0
 17 45  1  0
 18 19  1  0
 18 46  1  0
 18 47  1  0
 19 20  1  0
 19 48  1  0
 19 49  1  0
 20 21  1  0
 20 50  1  0
 20 51  1  0
 21 22  1  0
 21 23  2  0
 22 24  1  0
 24 52  1  0
 24 53  1  0
 24 54  1  0
M  END
> <Name>
CHEMBL2113104

> <Clean Energy>
28.3076

> <chembl_id>
CHEMBL2113104

> <chembl_pref_name>
None

> <efficacy>
0.24

> <Forcefield>
MMFF

> <ForcefieldBase>
MMFF

> <ForcefieldFFML>
<?xml version="1.0" encoding="UTF-8"?>
<!DOCTYPE ffml SYSTEM "Ffml.dtd">
<ffml version="1.0">
<forcefield name="MMFF" derivedFrom="MMFF" base="MMFF">
<atomTypes>
<atomType
name="C100"
element="C"
mass="12.011"
annotation=""/>
<atomType
name="O101"
element="O"
mass="16"
annotation=""/>
<atomType
name="H102"
element="H"
mass="1.008"
annotation=""/>
</atomTypes>
<parameters>
</parameters>
</forcefield>
</ffml>

> <Initial Potential Energy>
155.03766

> <Initial RMS Gradient>
27.02269

> <Minimization Criteria>
STEEPD> Minimization exiting with gradient tolerance ( 3.0000000) satisfied.

> <CHARMm Energy>
35.41199

> <Potential Energy>
35.41199

> <RMS Gradient>
0.06348

> <Bond Energy>
3.80447

> <Angle Energy>
7.51812

> <STRBend>
0.25891

> <Dihedral Energy>
-5.07955

> <OOPLane>
0.06187

> <Van der Waals Energy>
36.33907

> <Electrostatic Energy>
-7.49089

> <Hydrogen Bond Energy>
0

> <Solvation Free Energy>
0

> <HasGasteigerCharges>
true

> <REMARK99>
REMARK  99  MacroMolecule created from Mol2 file
REMARK  99  CHEMBL2113104
REMARK  99  PROTEIN
REMARK  99  GASTEIGER
REMARK  99
REMARK  99

$$$$
CHEMBL196139
  SciTegic05292516403D

 53 53  0  0  0  0            999 V2000
    7.0811  -13.2997    0.4517 C   0  0
    6.9960  -14.6851    0.2899 C   0  0
    5.8350  -15.3841    0.3064 N   0  0
   16.4872  -12.8022   -0.5399 C   0  0
    8.4200  -12.5904    0.4119 C   0  0  2  0  0  0
   16.9717  -13.6872   -1.2340 O   0  0
   10.4335  -11.9700   -1.0099 C   0  0
   11.5298  -12.5723   -1.4998 C   0  0
    8.1796  -15.3697    0.0979 O   0  0
   17.0105  -12.3773    0.6466 O   0  0
    5.8720  -12.6205    0.6672 C   0  0
    8.2756  -11.2360    0.8755 O   0  0
    9.0523  -12.5795   -0.9995 C   0  0
    4.7003  -14.6858    0.5081 C   0  0
   15.2974  -11.9624   -0.9287 C   0  0
   12.8757  -11.9063   -1.5532 C   0  0
    8.0219  -16.7879    0.0217 C   0  0
   18.2300  -13.0291    1.0190 C   0  0
   13.9927  -12.7514   -0.9328 C   0  0
    4.6679  -13.3175    0.6941 C   0  0
    9.3950  -17.4110   -0.2346 C   0  0
   11.7520  -17.7498    0.6095 C   0  0
   10.3954  -17.1003    0.8832 C   0  0
   12.7555  -17.4260    1.7049 C   0  0
    9.0934  -13.0805    1.1257 H   0  0
   10.5124  -10.9610   -0.6072 H   0  0
   11.4573  -13.5730   -1.9214 H   0  0
    5.8578  -11.5470    0.8339 H   0  0
    7.8690  -10.7270    0.1534 H   0  0
    8.4258  -11.9804   -1.6733 H   0  0
    9.0902  -13.5887   -1.4235 H   0  0
    3.7882  -15.2752    0.5214 H   0  0
   15.2153  -11.1050   -0.2497 H   0  0
   15.5118  -11.5477   -1.9212 H   0  0
   13.1158  -11.7113   -2.6059 H   0  0
   12.8370  -10.9305   -1.0528 H   0  0
    7.6107  -17.1765    0.9615 H   0  0
    7.3603  -17.0547   -0.8117 H   0  0
   18.5535  -12.6175    1.9789 H   0  0
   19.0087  -12.8334    0.2754 H   0  0
   18.0669  -14.1047    1.1390 H   0  0
   14.1139  -13.6835   -1.4986 H   0  0
   13.7338  -13.0380    0.0941 H   0  0
    3.7282  -12.8037    0.8642 H   0  0
    9.2826  -18.4958   -0.3436 H   0  0
    9.7928  -17.0217   -1.1800 H   0  0
   11.6365  -18.8374    0.5364 H   0  0
   12.1454  -17.3994   -0.3519 H   0  0
   10.0000  -17.4618    1.8402 H   0  0
   10.5269  -16.0156    0.9769 H   0  0
   13.7173  -17.9025    1.4907 H   0  0
   12.4058  -17.7878    2.6771 H   0  0
   12.9207  -16.3463    1.7788 H   0  0
  2  1  1  0
  3  2  2  0
  3 14  1  0
  4 15  1  0
  5  1  1  0
  5 25  1  0
  6  4  2  0
  7 13  1  0
  7 26  1  0
  8  7  2  0
  8 27  1  0
  9  2  1  0
 10  4  1  0
 11  1  2  0
 11 28  1  0
 12  5  1  0
 12 29  1  0
 13  5  1  0
 13 30  1  0
 13 31  1  0
 14 20  2  0
 14 32  1  0
 15 19  1  0
 15 33  1  0
 15 34  1  0
 16  8  1  0
 16 35  1  0
 16 36  1  0
 17  9  1  0
 17 37  1  0
 17 38  1  0
 18 10  1  0
 18 39  1  0
 18 40  1  0
 18 41  1  0
 19 16  1  0
 19 42  1  0
 19 43  1  0
 20 11  1  0
 20 44  1  0
 21 17  1  0
 21 45  1  0
 21 46  1  0
 22 23  1  0
 22 47  1  0
 22 48  1  0
 23 21  1  0
 23 49  1  0
 23 50  1  0
 24 22  1  0
 24 51  1  0
 24 52  1  0
 24 53  1  0
M  END
> <Name>
CHEMBL196139

> <Clean Energy>
24.1448

> <chembl_id>
CHEMBL196139

> <chembl_pref_name>
None

> <efficacy>
0.19

> <Forcefield>
MMFF

> <ForcefieldBase>
MMFF

> <ForcefieldFFML>
<?xml version="1.0" encoding="UTF-8"?>
<!DOCTYPE ffml SYSTEM "Ffml.dtd">
<ffml version="1.0">
<forcefield name="MMFF" derivedFrom="MMFF" base="MMFF">
<atomTypes>
<atomType
name="C100"
element="C"
mass="12.011"
annotation=""/>
<atomType
name="N101"
element="N"
mass="14.007"
annotation=""/>
<atomType
name="O102"
element="O"
mass="16"
annotation=""/>
<atomType
name="H103"
element="H"
mass="1.008"
annotation=""/>
</atomTypes>
<parameters>
</parameters>
</forcefield>
</ffml>

> <Initial Potential Energy>
105.13048

> <Initial RMS Gradient>
23.45635

> <Minimization Criteria>
STEEPD> Minimization exiting with gradient tolerance ( 3.0000000) satisfied.

> <CHARMm Energy>
10.03725

> <Potential Energy>
10.03725

> <RMS Gradient>
0.01851

> <Bond Energy>
3.34847

> <Angle Energy>
7.62154

> <STRBend>
0.83178

> <Dihedral Energy>
-12.12301

> <OOPLane>
0.15455

> <Van der Waals Energy>
39.52144

> <Electrostatic Energy>
-29.31752

> <Hydrogen Bond Energy>
0

> <Solvation Free Energy>
0

> <HasGasteigerCharges>
true

> <REMARK99>
REMARK  99  MacroMolecule created from Mol2 file
REMARK  99  CHEMBL196139
REMARK  99  PROTEIN
REMARK  99  GASTEIGER
REMARK  99
REMARK  99

$$$$
CHEMBL1092634
  SciTegic05292516403D

 59 63  0  0  0  0            999 V2000
    0.0761  -21.4381    0.4185 C   0  0
   -0.9985  -20.5969    0.1534 C   0  0
   -2.3718  -22.5604   -0.1987 C   0  0
   -2.2144  -21.1582   -0.1806 C   0  0
   -3.6938  -22.8969   -0.4689 O   0  0
   -4.4138  -21.7022   -0.5607 C   0  0
   -3.4859  -20.5222   -0.6605 C   0  0  1  0  0  0
   -4.0528  -19.3934    0.1902 C   0  0
   -5.5349  -19.1738    0.1329 C   0  0
   -6.3102  -20.2386   -0.1846 C   0  0
   -5.7369  -21.5696   -0.3638 C   0  0
   -7.6970  -20.2030   -0.2865 O   0  0
   -6.1635  -17.8507    0.3806 C   0  0
   -5.3141  -16.6645    0.7494 C   0  0
   -7.3859  -17.7349    0.2653 O   0  0
   -3.3142  -18.6434    0.8306 O   0  0
   -3.3247  -20.0401   -2.1096 C   0  0
   -0.7913  -19.2540    0.2214 O   0  0
   -0.0700  -22.8361    0.3463 C   0  0
   -1.2983  -23.4212    0.0463 C   0  0
   -1.3768  -24.8997    0.0074 C   0  0
   -0.1964  -25.6001    0.2504 N   0  0
    1.0664  -24.9165    0.1850 C   0  0  2  0  0  0
    1.0650  -23.5478    0.5892 O   0  0
   -2.4438  -25.4169   -0.3060 O   0  0
   -0.2370  -26.9556    0.5594 C   0  0
    0.8952  -27.6786    0.2466 N   0  0
   -1.1832  -27.4632    1.1580 O   0  0
    1.0578  -29.0484    0.6888 C   0  0
    2.4672  -29.5452    0.4960 C   0  0
    2.7095  -30.5872   -0.4181 C   0  0
    3.9991  -31.0899   -0.6095 C   0  0
    5.0681  -30.5597    0.1074 C   0  0
    4.8482  -29.5272    1.0173 C   0  0
    3.5576  -29.0224    1.2124 C   0  0
    1.7184  -25.1583   -1.0674 O   0  0
    1.2055  -24.4438   -2.1779 C   0  0
    3.3659  -27.7370    2.3548 Cl  0  0
    1.0425  -21.0057    0.6705 H   0  0
   -6.3744  -22.4382   -0.2275 H   0  0
   -8.0251  -19.2851   -0.1203 H   0  0
   -5.9421  -15.7683    0.7764 H   0  0
   -4.5376  -16.5024   -0.0024 H   0  0
   -4.8810  -16.8057    1.7426 H   0  0
   -4.2680  -19.6626   -2.5212 H   0  0
   -2.9737  -20.8407   -2.7723 H   0  0
   -2.5982  -19.2208   -2.1717 H   0  0
   -1.6154  -18.8066    0.5183 H   0  0
    1.7199  -25.3956    0.9222 H   0  0
    1.5125  -27.3143   -0.4690 H   0  0
    0.7666  -29.1316    1.7428 H   0  0
    0.3443  -29.6557    0.1192 H   0  0
    1.8889  -31.0225   -0.9867 H   0  0
    4.1677  -31.8991   -1.3170 H   0  0
    6.0712  -30.9511   -0.0411 H   0  0
    5.6855  -29.1123    1.5725 H   0  0
    1.7699  -24.7490   -3.0638 H   0  0
    1.3443  -23.3672   -2.0499 H   0  0
    0.1535  -24.6814   -2.3539 H   0  0
  1  2  2  0
  1 39  1  0
  2  4  1  0
  2 18  1  0
  3  4  2  0
  3 20  1  0
  4  7  1  0
  5  3  1  0
  6  5  1  0
  6  7  1  0
  7  8  1  0
  7 17  1  0
  8  9  1  0
  8 16  2  0
  9 10  2  0
  9 13  1  0
 10 11  1  0
 10 12  1  0
 11  6  2  0
 11 40  1  0
 12 41  1  0
 13 14  1  0
 13 15  2  0
 14 42  1  0
 14 43  1  0
 14 44  1  0
 17 45  1  0
 17 46  1  0
 17 47  1  0
 18 48  1  0
 19  1  1  0
 19 20  2  0
 19 24  1  0
 20 21  1  0
 21 22  1  0
 21 25  2  0
 22 23  1  0
 22 26  1  0
 23 24  1  0
 23 36  1  0
 23 49  1  0
 26 27  1  0
 26 28  2  0
 27 29  1  0
 27 50  1  0
 29 30  1  0
 29 51  1  0
 29 52  1  0
 30 31  2  0
 31 32  1  0
 31 53  1  0
 32 33  2  0
 32 54  1  0
 33 34  1  0
 33 55  1  0
 34 35  2  0
 34 56  1  0
 35 30  1  0
 35 38  1  0
 36 37  1  0
 37 57  1  0
 37 58  1  0
 37 59  1  0
M  END
> <Name>
CHEMBL1092634

> <Clean Energy>
71.0811

> <chembl_id>
CHEMBL1092634

> <chembl_pref_name>
None

> <efficacy>
0.2

> <Forcefield>
MMFF

> <ForcefieldBase>
MMFF

> <ForcefieldFFML>
<?xml version="1.0" encoding="UTF-8"?>
<!DOCTYPE ffml SYSTEM "Ffml.dtd">
<ffml version="1.0">
<forcefield name="MMFF" derivedFrom="MMFF" base="MMFF">
<atomTypes>
<atomType
name="C100"
element="C"
mass="12.011"
annotation=""/>
<atomType
name="O101"
element="O"
mass="16"
annotation=""/>
<atomType
name="N102"
element="N"
mass="14.007"
annotation=""/>
<atomType
name="Cl103"
element="Cl"
mass="35.453"
annotation=""/>
<atomType
name="H104"
element="H"
mass="1.008"
annotation=""/>
</atomTypes>
<parameters>
</parameters>
</forcefield>
</ffml>

> <Initial Potential Energy>
44.26241

> <Initial RMS Gradient>
26.75011

> <Minimization Criteria>
CONJUG> Minimization exiting with gradient tolerance ( 0.0100000) satisfied.

> <CHARMm Energy>
-52.63077

> <Potential Energy>
-52.63077

> <RMS Gradient>
0.00996

> <Bond Energy>
6.98357

> <Angle Energy>
33.63018

> <STRBend>
-0.03867

> <Dihedral Energy>
16.54602

> <OOPLane>
0.72459

> <Van der Waals Energy>
72.72579

> <Electrostatic Energy>
-183.20226

> <Hydrogen Bond Energy>
0

> <Solvation Free Energy>
0

> <HasGasteigerCharges>
true

> <REMARK99>
REMARK  99  MacroMolecule created from Mol2 file
REMARK  99  CHEMBL1092634
REMARK  99  PROTEIN
REMARK  99  GASTEIGER
REMARK  99
REMARK  99

$$$$
CHEMBL572565
  SciTegic05292516403D

 46 48  0  0  0  0            999 V2000
   18.5965   -6.8630    0.1878 C   0  0
   19.7156   -7.3808   -0.4672 C   0  0
   20.9979   -6.9074   -0.1814 C   0  0
   21.1656   -5.9032    0.7655 C   0  0
   20.0463   -5.3905    1.4281 C   0  0
   18.7636   -5.8644    1.1425 C   0  0
   22.3436   -5.3295    1.1388 O   0  0
   23.5662   -5.7447    0.4948 C   0  0  1  0  0  0
   24.4646   -4.5042    0.5269 C   0  0
   24.2081   -6.8891    1.2929 C   0  0
   24.9158   -7.9019    0.4207 C   0  0
   26.2250   -7.6781   -0.0251 C   0  0
   26.8625   -8.6137   -0.8416 C   0  0
   26.2091   -9.7854   -1.2162 C   0  0
   24.9090  -10.0204   -0.7760 C   0  0
   24.2667   -9.0850    0.0389 C   0  0
   23.7922   -3.3589    0.8184 O   0  0
   25.6653   -4.4975    0.2971 O   0  0
   17.4130   -7.4156   -0.2002 O   0  0
   16.2305   -6.9553    0.4515 C   0  0
   15.0678   -7.7348   -0.1087 C   0  0
   14.0032   -7.0802   -0.7377 C   0  0
   12.9523   -7.8185   -1.2739 C   0  0
   12.9557   -9.2099   -1.1814 C   0  0
   14.0077   -9.8710   -0.5518 C   0  0
   15.0602   -9.1358   -0.0167 C   0  0
   19.5849   -8.1622   -1.2133 H   0  0
   21.8262   -7.3498   -0.7228 H   0  0
   20.1692   -4.6110    2.1771 H   0  0
   17.9253   -5.4310    1.6793 H   0  0
   23.4083   -5.9633   -0.5672 H   0  0
   24.9193   -6.5048    2.0361 H   0  0
   23.4461   -7.4138    1.8844 H   0  0
   26.7707   -6.7789    0.2596 H   0  0
   27.8785   -8.4279   -1.1811 H   0  0
   26.7230  -10.5122   -1.8430 H   0  0
   24.3925  -10.9332   -1.0621 H   0  0
   23.2553   -9.2946    0.3809 H   0  0
   22.8465   -3.5768    0.9854 H   0  0
   16.2829   -7.1353    1.5325 H   0  0
   16.0922   -5.8838    0.2632 H   0  0
   13.9914   -5.9969   -0.8263 H   0  0
   12.1253   -7.3127   -1.7668 H   0  0
   12.1332   -9.7810   -1.6038 H   0  0
   14.0026  -10.9567   -0.4869 H   0  0
   15.9009   -9.6466    0.4521 H   0  0
  1  2  2  0
  1 19  1  0
  2  3  1  0
  2 27  1  0
  3  4  2  0
  3 28  1  0
  4  5  1  0
  4  7  1  0
  5  6  2  0
  5 29  1  0
  6  1  1  0
  6 30  1  0
  7  8  1  0
  8  9  1  0
  8 10  1  0
  8 31  1  0
  9 17  1  0
  9 18  2  0
 10 11  1  0
 10 32  1  0
 10 33  1  0
 11 12  2  0
 12 13  1  0
 12 34  1  0
 13 14  2  0
 13 35  1  0
 14 15  1  0
 14 36  1  0
 15 16  2  0
 15 37  1  0
 16 11  1  0
 16 38  1  0
 17 39  1  0
 19 20  1  0
 20 40  1  0
 20 41  1  0
 21 20  1  0
 21 22  2  0
 22 23  1  0
 22 42  1  0
 23 24  2  0
 23 43  1  0
 24 25  1  0
 24 44  1  0
 25 26  2  0
 25 45  1  0
 26 21  1  0
 26 46  1  0
M  END
> <Name>
CHEMBL572565

> <Clean Energy>
11.3964

> <chembl_id>
CHEMBL572565

> <chembl_pref_name>
None

> <efficacy>
0.43

> <Forcefield>
MMFF

> <ForcefieldBase>
MMFF

> <ForcefieldFFML>
<?xml version="1.0" encoding="UTF-8"?>
<!DOCTYPE ffml SYSTEM "Ffml.dtd">
<ffml version="1.0">
<forcefield name="MMFF" derivedFrom="MMFF" base="MMFF">
<atomTypes>
<atomType
name="C100"
element="C"
mass="12.011"
annotation=""/>
<atomType
name="O101"
element="O"
mass="16"
annotation=""/>
<atomType
name="H102"
element="H"
mass="1.008"
annotation=""/>
</atomTypes>
<parameters>
</parameters>
</forcefield>
</ffml>

> <Initial Potential Energy>
149.77453

> <Initial RMS Gradient>
30.837

> <Minimization Criteria>
CONJUG> Minimization exiting with gradient tolerance ( 0.0100000) satisfied.

> <CHARMm Energy>
70.21569

> <Potential Energy>
70.21569

> <RMS Gradient>
0.00939

> <Bond Energy>
4.96914

> <Angle Energy>
16.8867

> <STRBend>
-0.24898

> <Dihedral Energy>
0.27222

> <OOPLane>
0.01594

> <Van der Waals Energy>
59.02015

> <Electrostatic Energy>
-10.69948

> <Hydrogen Bond Energy>
0

> <Solvation Free Energy>
0

> <HasGasteigerCharges>
true

> <REMARK99>
REMARK  99  MacroMolecule created from Mol2 file
REMARK  99  CHEMBL572565
REMARK  99  PROTEIN
REMARK  99  GASTEIGER
REMARK  99
REMARK  99

$$$$
CHEMBL471851
  SciTegic05292516403D

 35 36  0  0  0  0            999 V2000
   -7.0276  -15.2324   -0.3901 C   0  0
   -7.2140  -16.2199    0.5710 C   0  0
   -6.1138  -16.8371    1.1613 C   0  0
   -4.8150  -16.4645    0.7907 C   0  0
   -4.6170  -15.4757   -0.1706 C   0  0
   -5.7314  -14.8651   -0.7579 C   0  0
   -3.4225  -15.0127   -0.6362 O   0  0
   -8.8060  -16.6808    1.0297 Cl  0  0
   -2.1900  -15.4961   -0.0824 C   0  0  2  0  0  0
   -1.2817  -14.2757   -0.0238 C   0  0
   -1.6008  -16.5814   -1.0017 C   0  0
   -0.5248  -17.4434   -0.3580 C   0  0
   -0.7256  -18.8083   -0.0369 C   0  0
    0.3228  -19.5312    0.5698 C   0  0
    1.5490  -18.9311    0.8450 C   0  0
    1.7553  -17.6006    0.5078 C   0  0
    0.7322  -16.8661   -0.0928 C   0  0
   -1.1304  -13.6335   -1.2019 O   0  0
   -0.7001  -13.8629    0.9689 O   0  0
   -2.0179  -19.5370   -0.3407 C   0  0
   -2.2909  -19.5900   -1.6732 F   0  0
   -2.0338  -20.8306    0.0900 F   0  0
   -3.0956  -18.9471    0.2453 F   0  0
   -7.8803  -14.7461   -0.8564 H   0  0
   -6.2555  -17.6131    1.9097 H   0  0
   -3.9937  -16.9803    1.2736 H   0  0
   -5.5871  -14.0933   -1.5112 H   0  0
   -2.3015  -15.8405    0.9509 H   0  0
   -2.4168  -17.2085   -1.3744 H   0  0
   -1.1777  -16.1342   -1.9113 H   0  0
    0.1881  -20.5817    0.8288 H   0  0
    2.3444  -19.5055    1.3136 H   0  0
    2.7148  -17.1302    0.7094 H   0  0
    0.9396  -15.8318   -0.3603 H   0  0
   -0.5787  -12.8532   -0.9849 H   0  0
  1  2  2  0
  1 24  1  0
  2  3  1  0
  2  8  1  0
  3  4  2  0
  3 25  1  0
  4  5  1  0
  4 26  1  0
  5  6  2  0
  5  7  1  0
  6  1  1  0
  6 27  1  0
  7  9  1  0
  9 10  1  0
  9 11  1  0
  9 28  1  0
 10 18  1  0
 10 19  2  0
 11 12  1  0
 11 29  1  0
 11 30  1  0
 12 13  2  0
 13 14  1  0
 13 20  1  0
 14 15  2  0
 14 31  1  0
 15 16  1  0
 15 32  1  0
 16 17  2  0
 16 33  1  0
 17 12  1  0
 17 34  1  0
 18 35  1  0
 20 21  1  0
 20 22  1  0
 20 23  1  0
M  END
> <Name>
CHEMBL471851

> <Clean Energy>
35.255402

> <chembl_id>
CHEMBL471851

> <chembl_pref_name>
None

> <efficacy>
0.26

> <Forcefield>
MMFF

> <ForcefieldBase>
MMFF

> <ForcefieldFFML>
<?xml version="1.0" encoding="UTF-8"?>
<!DOCTYPE ffml SYSTEM "Ffml.dtd">
<ffml version="1.0">
<forcefield name="MMFF" derivedFrom="MMFF" base="MMFF">
<atomTypes>
<atomType
name="C100"
element="C"
mass="12.011"
annotation=""/>
<atomType
name="O101"
element="O"
mass="16"
annotation=""/>
<atomType
name="Cl102"
element="Cl"
mass="35.453"
annotation=""/>
<atomType
name="F103"
element="F"
mass="18.998"
annotation=""/>
<atomType
name="H104"
element="H"
mass="1.008"
annotation=""/>
</atomTypes>
<parameters>
</parameters>
</forcefield>
</ffml>

> <Initial Potential Energy>
755.26121

> <Initial RMS Gradient>
620.10268

> <Minimization Criteria>
STEEPD> Minimization exiting with gradient tolerance ( 3.0000000) satisfied.

> <CHARMm Energy>
79.70212

> <Potential Energy>
79.70212

> <RMS Gradient>
0.14323

> <Bond Energy>
4.59027

> <Angle Energy>
13.21748

> <STRBend>
0.29743

> <Dihedral Energy>
5.42928

> <OOPLane>
0.00808

> <Van der Waals Energy>
37.98077

> <Electrostatic Energy>
18.17881

> <Hydrogen Bond Energy>
0

> <Solvation Free Energy>
0

> <HasGasteigerCharges>
true

> <REMARK99>
REMARK  99  MacroMolecule created from Mol2 file
REMARK  99  CHEMBL471851
REMARK  99  PROTEIN
REMARK  99  GASTEIGER
REMARK  99
REMARK  99

$$$$
CHEMBL2322450
  SciTegic05292516403D

 69 75  0  0  0  0            999 V2000
   11.5388  -10.2809    1.0979 C   0  0
   12.2612  -10.9646    2.0784 C   0  0
   13.1363  -11.9934    1.7255 C   0  0
   13.3096  -12.3508    0.3822 C   0  0
   12.5625  -11.6624   -0.5961 C   0  0
   11.6637  -10.6271   -0.2533 C   0  0
    8.5091   -9.9354   -0.7802 C   0  0
    9.7008   -9.1815   -0.9482 N   0  0
    9.7357   -7.7888   -0.7725 C   0  0
    8.6354   -7.0891   -0.4306 C   0  0
    7.3689   -9.1364   -0.3890 C   0  0
    7.4167   -7.7794   -0.2293 C   0  0
    6.2417   -7.2501    0.1911 N   0  0
    5.4413   -8.3029    0.3517 C   0  0
    6.0774   -9.4817   -0.0417 N   0  0
    4.0477   -8.2208    0.9088 C   0  0
    3.8376   -6.9772    1.7621 C   0  0
    5.6614  -10.8768    0.0617 C   0  0  1  0  0  0
    5.0156  -12.6694    1.6085 C   0  0
    5.9356  -11.4562    1.4641 C   0  0
    3.8607  -12.2694    0.7396 C   0  0
    4.2154  -11.2388   -0.1451 C   0  0
    3.3172  -10.8029   -1.1033 C   0  0
    2.0317  -11.3604   -1.1160 C   0  0
    1.6539  -12.3760   -0.2077 C   0  0
    2.5984  -12.8424    0.7199 C   0  0
    0.2779  -12.8974   -0.2033 C   0  0
   -0.7104  -12.0754    0.3897 C   0  0
   -2.0436  -12.4704    0.4787 C   0  0
   -2.4272  -13.7042   -0.0215 C   0  0
   -1.4698  -14.5292   -0.6122 C   0  0
   -0.1111  -14.1539   -0.7234 C   0  0
    0.7684  -15.1228   -1.3960 C   0  0
    2.0394  -14.9167   -1.8641 N   0  0
    2.4861  -16.0060   -2.5052 N   0  0
    1.5168  -16.8967   -2.3928 N   0  0
    0.4504  -16.3702   -1.7154 N   0  0
    8.4693  -11.1520   -0.9417 O   0  0
   10.9161   -9.8967   -1.3588 C   0  0
   14.2572  -13.4697   -0.0009 C   0  0
   15.1267  -13.8292    0.9933 F   0  0
   15.0542  -13.1637   -1.0683 F   0  0
   13.6031  -14.6145   -0.3458 F   0  0
   10.8768   -9.4769    1.4096 H   0  0
   12.1504  -10.6851    3.1243 H   0  0
   13.6922  -12.5102    2.5073 H   0  0
   12.6860  -11.9412   -1.6437 H   0  0
   10.6920   -7.2901   -0.9219 H   0  0
    8.6701   -6.0143   -0.2890 H   0  0
    3.3305   -8.2050    0.0820 H   0  0
    3.8350   -9.0934    1.5336 H   0  0
    2.8216   -6.9658    2.1696 H   0  0
    3.9751   -6.0628    1.1750 H   0  0
    4.5413   -6.9499    2.6011 H   0  0
    6.2020  -11.4474   -0.6999 H   0  0
    5.4867  -13.5747    1.2119 H   0  0
    4.7204  -12.8259    2.6498 H   0  0
    5.6852  -10.7204    2.2413 H   0  0
    6.9888  -11.7203    1.6086 H   0  0
    3.5741  -10.0306   -1.8242 H   0  0
    1.3107  -10.9897   -1.8438 H   0  0
    2.3494  -13.6326    1.4250 H   0  0
   -0.4330  -11.1054    0.8019 H   0  0
   -2.7756  -11.8154    0.9434 H   0  0
   -3.4623  -14.0273    0.0426 H   0  0
   -1.7909  -15.4920   -1.0053 H   0  0
    2.6297  -14.0972   -1.8167 H   0  0
   10.6210  -10.6298   -2.1205 H   0  0
   11.6048   -9.1906   -1.8391 H   0  0
  1  2  2  0
  1 44  1  0
  2  3  1  0
  2 45  1  0
  3  4  2  0
  3 46  1  0
  4  5  1  0
  4 40  1  0
  5  6  2  0
  5 47  1  0
  6  1  1  0
  7  8  1  0
  7 38  2  0
  8  9  1  0
  8 39  1  0
  9 10  2  0
  9 48  1  0
 10 12  1  0
 10 49  1  0
 11  7  1  0
 11 12  2  0
 12 13  1  0
 13 14  2  0
 14 15  1  0
 14 16  1  0
 15 11  1  0
 16 17  1  0
 16 50  1  0
 16 51  1  0
 17 52  1  0
 17 53  1  0
 17 54  1  0
 18 15  1  0
 18 22  1  0
 18 55  1  0
 19 20  1  0
 19 56  1  0
 19 57  1  0
 20 18  1  0
 20 58  1  0
 20 59  1  0
 21 19  1  0
 21 22  2  0
 22 23  1  0
 23 24  2  0
 23 60  1  0
 24 25  1  0
 24 61  1  0
 25 26  2  0
 25 27  1  0
 26 21  1  0
 26 62  1  0
 27 28  2  0
 28 29  1  0
 28 63  1  0
 29 30  2  0
 29 64  1  0
 30 31  1  0
 30 65  1  0
 31 32  2  0
 31 66  1  0
 32 27  1  0
 32 33  1  0
 33 34  1  0
 34 35  1  0
 34 67  1  0
 35 36  2  0
 36 37  1  0
 37 33  2  0
 39  6  1  0
 39 68  1  0
 39 69  1  0
 40 41  1  0
 40 42  1  0
 40 43  1  0
M  END
> <Name>
CHEMBL2322450

> <Clean Energy>
121.963997

> <chembl_id>
CHEMBL2322450

> <chembl_pref_name>
None

> <efficacy>
0.206521739

> <Forcefield>
MMFF

> <ForcefieldBase>
MMFF

> <ForcefieldFFML>
<?xml version="1.0" encoding="UTF-8"?>
<!DOCTYPE ffml SYSTEM "Ffml.dtd">
<ffml version="1.0">
<forcefield name="MMFF" derivedFrom="MMFF" base="MMFF">
<atomTypes>
<atomType
name="C100"
element="C"
mass="12.011"
annotation=""/>
<atomType
name="N101"
element="N"
mass="14.007"
annotation=""/>
<atomType
name="O102"
element="O"
mass="16"
annotation=""/>
<atomType
name="F103"
element="F"
mass="18.998"
annotation=""/>
<atomType
name="H104"
element="H"
mass="1.008"
annotation=""/>
</atomTypes>
<parameters>
</parameters>
</forcefield>
</ffml>

> <Initial Potential Energy>
285.96915

> <Initial RMS Gradient>
36.79261

> <Minimization Criteria>
CONJUG> Minimization exiting with gradient tolerance ( 0.0100000) satisfied.

> <CHARMm Energy>
87.30682

> <Potential Energy>
87.30682

> <RMS Gradient>
0.01

> <Bond Energy>
12.19616

> <Angle Energy>
23.77642

> <STRBend>
-0.64614

> <Dihedral Energy>
4.55834

> <OOPLane>
0.25882

> <Van der Waals Energy>
70.99062

> <Electrostatic Energy>
-23.82741

> <Hydrogen Bond Energy>
0

> <Solvation Free Energy>
0

> <HasGasteigerCharges>
true

> <REMARK99>
REMARK  99  MacroMolecule created from Mol2 file
REMARK  99  CHEMBL2322450
REMARK  99  PROTEIN
REMARK  99  GASTEIGER
REMARK  99
REMARK  99

$$$$
CHEMBL489075
  SciTegic05292516403D

 48 50  0  0  0  0            999 V2000
    1.8722   -3.9910   -1.1750 C   0  0
    1.4067   -5.3017   -1.2909 C   0  0
    2.1659   -6.3579   -0.7937 C   0  0
    3.3909   -6.1040   -0.1791 C   0  0
    3.8588   -4.7944   -0.0595 C   0  0
    3.1027   -3.7254   -0.5564 C   0  0
    3.5925   -2.3031   -0.4158 C   0  0
    2.8033   -1.4962    0.6236 C   0  0  1  0  0  0
    3.3033   -1.8365    2.0299 C   0  0
    4.1461   -1.2067    2.6543 O   0  0
    2.7431   -2.9613    2.5490 O   0  0
    3.0319   -0.1034    0.3468 O   0  0
    1.8508    0.5824    0.3416 C   0  0
    1.5545    1.4086    1.4205 C   0  0
    0.3263    2.0674    1.4601 C   0  0
    0.9716    0.4516   -0.7304 C   0  0
   -0.2585    1.0976   -0.6835 C   0  0
   -0.5968    1.8972    0.4189 C   0  0
   -1.9500    2.5550    0.4728 C   0  0
   -2.0597    3.7337   -0.4954 C   0  0
   -3.4964    4.1731   -0.6108 C   0  0
   -4.0588    5.0046    0.3637 C   0  0
   -5.4069    5.3388    0.2992 C   0  0
   -6.1988    4.8543   -0.7414 C   0  0
   -5.6455    4.0290   -1.7187 C   0  0
   -4.2993    3.6848   -1.6519 C   0  0
    1.2692   -3.1798   -1.5801 H   0  0
    0.4529   -5.4952   -1.7762 H   0  0
    1.8126   -7.3826   -0.8930 H   0  0
    3.9884   -6.9312    0.2003 H   0  0
    4.8208   -4.6218    0.4219 H   0  0
    4.6633   -2.2934   -0.1724 H   0  0
    3.5212   -1.8201   -1.3998 H   0  0
    1.7323   -1.7411    0.5866 H   0  0
    2.0825   -3.3837    1.9630 H   0  0
    2.2681    1.5216    2.2334 H   0  0
    0.0893    2.7026    2.3116 H   0  0
    1.2327   -0.1595   -1.5885 H   0  0
   -0.9583    0.9722   -1.5068 H   0  0
   -2.7075    1.7921    0.2464 H   0  0
   -2.1672    2.8870    1.4965 H   0  0
   -1.4380    4.5712   -0.1535 H   0  0
   -1.6817    3.4710   -1.4917 H   0  0
   -3.4493    5.3718    1.1864 H   0  0
   -5.8439    5.9802    1.0601 H   0  0
   -7.2512    5.1210   -0.7905 H   0  0
   -6.2709    3.6599   -2.5281 H   0  0
   -3.8723    3.0129   -2.3944 H   0  0
  1  6  1  0
  1 27  1  0
  2  1  2  0
  2 28  1  0
  3  2  1  0
  3  4  2  0
  3 29  1  0
  4  5  1  0
  4 30  1  0
  5  6  2  0
  5 31  1  0
  7  6  1  0
  7  8  1  0
  7 32  1  0
  7 33  1  0
  8 12  1  0
  8 34  1  0
  9  8  1  0
  9 10  2  0
  9 11  1  0
 11 35  1  0
 13 12  1  0
 14 13  2  0
 14 36  1  0
 15 14  1  0
 15 18  2  0
 15 37  1  0
 16 13  1  0
 16 38  1  0
 17 16  2  0
 17 18  1  0
 17 39  1  0
 19 18  1  0
 19 40  1  0
 19 41  1  0
 20 19  1  0
 20 21  1  0
 20 42  1  0
 20 43  1  0
 22 21  2  0
 22 44  1  0
 23 22  1  0
 23 45  1  0
 24 23  2  0
 24 25  1  0
 24 46  1  0
 25 26  2  0
 25 47  1  0
 26 21  1  0
 26 48  1  0
M  END
> <Name>
CHEMBL489075

> <Clean Energy>
18.3666

> <chembl_id>
CHEMBL489075

> <chembl_pref_name>
None

> <efficacy>
0.33

> <Forcefield>
MMFF

> <ForcefieldBase>
MMFF

> <ForcefieldFFML>
<?xml version="1.0" encoding="UTF-8"?>
<!DOCTYPE ffml SYSTEM "Ffml.dtd">
<ffml version="1.0">
<forcefield name="MMFF" derivedFrom="MMFF" base="MMFF">
<atomTypes>
<atomType
name="C100"
element="C"
mass="12.011"
annotation=""/>
<atomType
name="O101"
element="O"
mass="16"
annotation=""/>
<atomType
name="H102"
element="H"
mass="1.008"
annotation=""/>
</atomTypes>
<parameters>
</parameters>
</forcefield>
</ffml>

> <Initial Potential Energy>
159.17758

> <Initial RMS Gradient>
30.75949

> <Minimization Criteria>
STEEPD> Minimization exiting with gradient tolerance ( 3.0000000) satisfied.

> <CHARMm Energy>
76.18819

> <Potential Energy>
76.18819

> <RMS Gradient>
0.02699

> <Bond Energy>
5.02204

> <Angle Energy>
4.34946

> <STRBend>
0.16912

> <Dihedral Energy>
8.17479

> <OOPLane>
0.05681

> <Van der Waals Energy>
54.95522

> <Electrostatic Energy>
3.46074

> <Hydrogen Bond Energy>
0

> <Solvation Free Energy>
0

> <HasGasteigerCharges>
true

> <REMARK99>
REMARK  99  MacroMolecule created from Mol2 file
REMARK  99  CHEMBL489075
REMARK  99  PROTEIN
REMARK  99  GASTEIGER
REMARK  99
REMARK  99

$$$$
CHEMBL3115242
  SciTegic05292516403D

 72 77  0  0  0  0            999 V2000
   14.7363   -2.4215   -0.4695 C   0  0
   16.0482   -2.3016    0.0730 C   0  0
   16.3093   -1.6372    1.3522 C   0  0
   17.5591   -1.5914    1.8324 C   0  0
   17.0773   -2.8108   -0.6469 C   0  0
   19.6613   -3.1421   -0.6010 C   0  0
   18.4150   -2.7486   -0.1410 C   0  0
   18.6060   -2.1492    1.1030 N   0  0
   19.8986   -2.1985    1.4719 N   0  0
   20.5533   -2.7290    0.4358 C   0  0
   19.9882   -3.8097   -1.8997 C   0  0
   22.0463   -2.8798    0.4870 C   0  0
   22.7658   -1.7922    1.2894 C   0  0
   24.2748   -1.9793    1.2437 C   0  0
   20.8146   -5.0419   -1.6078 C   0  0
   20.3971   -6.0156   -0.6905 C   0  0
   21.2000   -7.1243   -0.4140 C   0  0
   22.4291   -7.3095   -1.0650 C   0  0
   22.8239   -6.3581   -2.0154 C   0  0
   22.0276   -5.2403   -2.2840 C   0  0
   23.2391   -8.5089   -0.7979 C   0  0
   22.6820   -9.7605   -1.1370 C   0  0
   23.3830  -10.9475   -0.9327 C   0  0
   24.6617  -10.9093   -0.3906 C   0  0
   25.2442   -9.6899   -0.0524 C   0  0
   24.5405   -8.4890   -0.2460 C   0  0
   25.1769   -7.2294    0.2147 C   0  0
   26.5082   -7.2343    0.0103 O   0  0
   24.6225   -6.2710    0.7180 O   0  0
   14.1685   -1.7092   -1.4245 N   0  0
   13.8489   -3.3532    0.0380 N   0  0
   12.6381   -3.1746   -0.5966 C   0  0
   12.8729   -2.1426   -1.4986 C   0  0
   11.8306   -1.6874   -2.3173 C   0  0
   10.5708   -2.2826   -2.1947 C   0  0
   10.3578   -3.3182   -1.2845 C   0  0
   11.3891   -3.7930   -0.4676 C   0  0
   14.1117   -4.3788    1.0347 C   0  0
   13.6267   -3.9892    2.4296 C   0  0
   13.9375   -5.0770    3.4445 C   0  0
   15.4819   -1.1777    1.8844 H   0  0
   17.8335   -1.1297    2.7704 H   0  0
   16.9057   -3.2841   -1.6102 H   0  0
   19.0857   -4.1099   -2.4433 H   0  0
   20.5376   -3.1047   -2.5347 H   0  0
   22.2834   -3.8632    0.9117 H   0  0
   22.4406   -2.8628   -0.5358 H   0  0
   22.5124   -0.8020    0.8917 H   0  0
   22.4391   -1.8112    2.3359 H   0  0
   24.7716   -1.1970    1.8260 H   0  0
   24.6463   -1.9249    0.2154 H   0  0
   24.5623   -2.9492    1.6622 H   0  0
   19.4570   -5.9048   -0.1552 H   0  0
   20.8552   -7.8441    0.3256 H   0  0
   23.7575   -6.4796   -2.5599 H   0  0
   22.3715   -4.5158   -3.0191 H   0  0
   21.6850   -9.8074   -1.5761 H   0  0
   22.9341  -11.9007   -1.2004 H   0  0
   25.2080  -11.8314   -0.2236 H   0  0
   26.2443   -9.6869    0.3781 H   0  0
   26.7888   -6.3578    0.3485 H   0  0
   12.0036   -0.8816   -3.0217 H   0  0
    9.7549   -1.9293   -2.8171 H   0  0
    9.3723   -3.7675   -1.2036 H   0  0
   11.2103   -4.5962    0.2389 H   0  0
   13.6135   -5.2950    0.6947 H   0  0
   15.1847   -4.5967    1.0394 H   0  0
   14.0968   -3.0537    2.7504 H   0  0
   12.5460   -3.8071    2.4188 H   0  0
   13.5820   -4.7826    4.4370 H   0  0
   15.0156   -5.2562    3.5094 H   0  0
   13.4478   -6.0178    3.1734 H   0  0
  1 30  2  0
  2  1  1  0
  2  3  1  0
  3  4  2  0
  3 41  1  0
  4  8  1  0
  4 42  1  0
  5  2  2  0
  5 43  1  0
  6  7  2  0
  6 11  1  0
  7  5  1  0
  7  8  1  0
  8  9  1  0
  9 10  2  0
 10  6  1  0
 10 12  1  0
 11 15  1  0
 11 44  1  0
 11 45  1  0
 12 13  1  0
 12 46  1  0
 12 47  1  0
 13 14  1  0
 13 48  1  0
 13 49  1  0
 14 50  1  0
 14 51  1  0
 14 52  1  0
 15 16  2  0
 16 17  1  0
 16 53  1  0
 17 18  2  0
 17 54  1  0
 18 19  1  0
 18 21  1  0
 19 20  2  0
 19 55  1  0
 20 15  1  0
 20 56  1  0
 21 22  2  0
 22 23  1  0
 22 57  1  0
 23 24  2  0
 23 58  1  0
 24 25  1  0
 24 59  1  0
 25 26  2  0
 25 60  1  0
 26 21  1  0
 26 27  1  0
 27 28  1  0
 27 29  2  0
 28 61  1  0
 30 33  1  0
 31  1  1  0
 31 38  1  0
 32 31  1  0
 32 33  2  0
 33 34  1  0
 34 35  2  0
 34 62  1  0
 35 36  1  0
 35 63  1  0
 36 37  2  0
 36 64  1  0
 37 32  1  0
 37 65  1  0
 38 39  1  0
 38 66  1  0
 38 67  1  0
 39 40  1  0
 39 68  1  0
 39 69  1  0
 40 70  1  0
 40 71  1  0
 40 72  1  0
M  END
> <Name>
CHEMBL3115242

> <Clean Energy>
85.052002

> <chembl_id>
CHEMBL3115242

> <chembl_pref_name>
None

> <efficacy>
0.43

> <Forcefield>
MMFF

> <ForcefieldBase>
MMFF

> <ForcefieldFFML>
<?xml version="1.0" encoding="UTF-8"?>
<!DOCTYPE ffml SYSTEM "Ffml.dtd">
<ffml version="1.0">
<forcefield name="MMFF" derivedFrom="MMFF" base="MMFF">
<atomTypes>
<atomType
name="C100"
element="C"
mass="12.011"
annotation=""/>
<atomType
name="N101"
element="N"
mass="14.007"
annotation=""/>
<atomType
name="O102"
element="O"
mass="16"
annotation=""/>
<atomType
name="H103"
element="H"
mass="1.008"
annotation=""/>
</atomTypes>
<parameters>
</parameters>
</forcefield>
</ffml>

> <Initial Potential Energy>
312.04871

> <Initial RMS Gradient>
36.60663

> <Minimization Criteria>
STEEPD> Minimization exiting with gradient tolerance ( 3.0000000) satisfied.

> <CHARMm Energy>
92.7574

> <Potential Energy>
92.7574

> <RMS Gradient>
0.03342

> <Bond Energy>
9.21247

> <Angle Energy>
14.23933

> <STRBend>
-0.82419

> <Dihedral Energy>
9.08242

> <OOPLane>
0.0778

> <Van der Waals Energy>
72.61179

> <Electrostatic Energy>
-11.64221

> <Hydrogen Bond Energy>
0

> <Solvation Free Energy>
0

> <HasGasteigerCharges>
true

> <REMARK99>
REMARK  99  MacroMolecule created from Mol2 file
REMARK  99  CHEMBL3115242
REMARK  99  PROTEIN
REMARK  99  GASTEIGER
REMARK  99
REMARK  99

$$$$
CHEMBL2312704
  SciTegic05292516403D

 51 53  0  0  0  0            999 V2000
   15.1404  -17.2806   -1.5727 C   0  0
   15.0848  -18.6680   -1.4963 C   0  0
   16.1864  -19.3729   -1.0139 C   0  0
   17.3631  -18.7002   -0.6072 C   0  0
   17.4263  -17.2872   -0.6809 C   0  0
   16.2974  -16.6008   -1.1703 C   0  0
   18.6096  -16.5073   -0.2602 C   0  0
   19.6919  -16.2937   -1.1277 C   0  0
   20.8200  -15.5526   -0.7280 C   0  0
   20.8933  -15.0174    0.5560 C   0  0
   19.8072  -15.1983    1.4169 C   0  0
   18.6818  -15.9354    1.0171 C   0  0
   21.9276  -14.2827    1.0735 O   0  0
   23.2584  -14.4685    0.5403 C   0  0  1  0  0  0
   24.1036  -13.2592    0.9810 C   0  0
   23.4017  -12.3256    1.6709 O   0  0
   25.2964  -13.1194    0.7405 O   0  0
   23.9140  -15.7366    1.1188 C   0  0
   23.8255  -16.9255    0.1880 C   0  0
   22.9380  -17.9782    0.4468 C   0  0
   22.8541  -19.0625   -0.4282 C   0  0
   23.6603  -19.1091   -1.5638 C   0  0
   24.5535  -18.0725   -1.8253 C   0  0
   24.6363  -16.9853   -0.9545 C   0  0
   18.5062  -19.5336   -0.0638 C   0  0
   18.3642  -19.7808    1.4392 C   0  0
   19.5278  -20.5954    1.9812 C   0  0
   14.2841  -16.7205   -1.9408 H   0  0
   14.1846  -19.2013   -1.8049 H   0  0
   16.1252  -20.4585   -0.9492 H   0  0
   16.3160  -15.5141   -1.2390 H   0  0
   19.6667  -16.7123   -2.1328 H   0  0
   21.6170  -15.4253   -1.4530 H   0  0
   19.8320  -14.7753    2.4185 H   0  0
   17.8580  -16.0670    1.7163 H   0  0
   23.2519  -14.4209   -0.5539 H   0  0
   22.4663  -12.6076    1.7636 H   0  0
   24.9795  -15.5821    1.3326 H   0  0
   23.4534  -15.9923    2.0820 H   0  0
   22.2960  -17.9570    1.3249 H   0  0
   22.1592  -19.8724   -0.2231 H   0  0
   23.5971  -19.9566   -2.2413 H   0  0
   25.1951  -18.1141   -2.7024 H   0  0
   25.3490  -16.1899   -1.1677 H   0  0
   18.5325  -20.4936   -0.5964 H   0  0
   19.4685  -19.0596   -0.2848 H   0  0
   18.3122  -18.8295    1.9809 H   0  0
   17.4276  -20.3125    1.6462 H   0  0
   19.3976  -20.7748    3.0530 H   0  0
   20.4755  -20.0670    1.8393 H   0  0
   19.5954  -21.5660    1.4796 H   0  0
  1  2  2  0
  1 28  1  0
  2  3  1  0
  2 29  1  0
  3  4  2  0
  3 30  1  0
  4  5  1  0
  4 25  1  0
  5  6  2  0
  5  7  1  0
  6  1  1  0
  6 31  1  0
  7  8  2  0
  8  9  1  0
  8 32  1  0
  9 10  2  0
  9 33  1  0
 10 11  1  0
 10 13  1  0
 11 12  2  0
 11 34  1  0
 12  7  1  0
 12 35  1  0
 13 14  1  0
 14 15  1  0
 14 18  1  0
 14 36  1  0
 15 16  1  0
 15 17  2  0
 16 37  1  0
 18 19  1  0
 18 38  1  0
 18 39  1  0
 19 20  2  0
 20 21  1  0
 20 40  1  0
 21 22  2  0
 21 41  1  0
 22 23  1  0
 22 42  1  0
 23 24  2  0
 23 43  1  0
 24 19  1  0
 24 44  1  0
 25 26  1  0
 25 45  1  0
 25 46  1  0
 26 27  1  0
 26 47  1  0
 26 48  1  0
 27 49  1  0
 27 50  1  0
 27 51  1  0
M  END
> <Name>
CHEMBL2312704

> <Clean Energy>
28.888201

> <chembl_id>
CHEMBL2312704

> <chembl_pref_name>
None

> <efficacy>
0.08

> <Forcefield>
MMFF

> <ForcefieldBase>
MMFF

> <ForcefieldFFML>
<?xml version="1.0" encoding="UTF-8"?>
<!DOCTYPE ffml SYSTEM "Ffml.dtd">
<ffml version="1.0">
<forcefield name="MMFF" derivedFrom="MMFF" base="MMFF">
<atomTypes>
<atomType
name="C100"
element="C"
mass="12.011"
annotation=""/>
<atomType
name="O101"
element="O"
mass="16"
annotation=""/>
<atomType
name="H102"
element="H"
mass="1.008"
annotation=""/>
</atomTypes>
<parameters>
</parameters>
</forcefield>
</ffml>

> <Initial Potential Energy>
172.7186

> <Initial RMS Gradient>
30.83877

> <Minimization Criteria>
CONJUG> Minimization exiting with gradient tolerance ( 0.0100000) satisfied.

> <CHARMm Energy>
72.66406

> <Potential Energy>
72.66406

> <RMS Gradient>
0.00942

> <Bond Energy>
7.89314

> <Angle Energy>
11.29916

> <STRBend>
0.01587

> <Dihedral Energy>
5.16302

> <OOPLane>
0.01946

> <Van der Waals Energy>
53.96634

> <Electrostatic Energy>
-5.69294

> <Hydrogen Bond Energy>
0

> <Solvation Free Energy>
0

> <HasGasteigerCharges>
true

> <REMARK99>
REMARK  99  MacroMolecule created from Mol2 file
REMARK  99  CHEMBL2312704
REMARK  99  PROTEIN
REMARK  99  GASTEIGER
REMARK  99
REMARK  99

$$$$
CHEMBL2312718
  SciTegic05292516403D

 52 55  0  0  0  0            999 V2000
   13.8191  -11.8041    1.3074 C   0  0
   13.5223  -13.1581    1.2072 C   0  0
   14.4859  -14.0415    0.7198 C   0  0
   15.7656  -13.5881    0.3245 C   0  0
   16.0723  -12.2051    0.4279 C   0  0
   15.0789  -11.3346    0.9220 C   0  0
   17.3867  -11.6433    0.0431 C   0  0
   18.5481  -11.9271    0.7785 C   0  0
   19.8000  -11.4103    0.4025 C   0  0
   19.9177  -10.5953   -0.7203 C   0  0
   18.7645  -10.2910   -1.4481 C   0  0
   17.5149  -10.8045   -1.0729 C   0  0
   21.0666  -10.0444   -1.2180 O   0  0
   22.3269  -10.3105   -0.5830 C   0  0  2  0  0  0
   23.3071   -9.1858   -0.9767 C   0  0
   24.3621   -9.0536   -0.1272 O   0  0
   23.1946   -8.4569   -1.9524 O   0  0
   22.8861  -11.6529   -1.0867 C   0  0
   24.0147  -12.1835   -0.2333 C   0  0
   25.3447  -12.0624   -0.6610 C   0  0
   26.3918  -12.5054    0.1482 C   0  0
   26.1211  -13.0789    1.3888 C   0  0
   24.8022  -13.2175    1.8169 C   0  0
   23.7526  -12.7741    1.0098 C   0  0
   16.7317  -14.5714   -0.1968 C   0  0
   17.3447  -15.4989    0.6606 C   0  0
   18.2738  -16.4198    0.1705 C   0  0
   18.5930  -16.4344   -1.1858 C   0  0
   17.9855  -15.5288   -2.0526 C   0  0
   17.0622  -14.6038   -1.5607 C   0  0
   13.0757  -11.1066    1.6835 H   0  0
   12.5419  -13.5283    1.5011 H   0  0
   14.2341  -15.0981    0.6330 H   0  0
   15.2977  -10.2719    1.0174 H   0  0
   18.4851  -12.5683    1.6559 H   0  0
   20.6526  -11.6792    1.0128 H   0  0
   18.8368   -9.6513   -2.3253 H   0  0
   16.6398  -10.5544   -1.6706 H   0  0
   22.2118  -10.2557    0.5061 H   0  0
   24.3720   -9.7104    0.5978 H   0  0
   22.0976  -12.4152   -1.1228 H   0  0
   23.2189  -11.5534   -2.1288 H   0  0
   25.5761  -11.6140   -1.6264 H   0  0
   27.4213  -12.4055   -0.1904 H   0  0
   26.9388  -13.4267    2.0165 H   0  0
   24.5871  -13.6786    2.7782 H   0  0
   22.7313  -12.9071    1.3583 H   0  0
   17.1021  -15.5003    1.7212 H   0  0
   18.7482  -17.1249    0.8475 H   0  0
   19.3136  -17.1526   -1.5681 H   0  0
   18.2267  -15.5404   -3.1123 H   0  0
   16.5940  -13.9028   -2.2493 H   0  0
  1  2  2  0
  1 31  1  0
  2  3  1  0
  2 32  1  0
  3  4  2  0
  3 33  1  0
  4  5  1  0
  4 25  1  0
  5  6  2  0
  5  7  1  0
  6  1  1  0
  6 34  1  0
  7  8  2  0
  8  9  1  0
  8 35  1  0
  9 10  2  0
  9 36  1  0
 10 11  1  0
 10 13  1  0
 11 12  2  0
 11 37  1  0
 12  7  1  0
 12 38  1  0
 13 14  1  0
 14 15  1  0
 14 18  1  0
 14 39  1  0
 15 16  1  0
 15 17  2  0
 16 40  1  0
 18 19  1  0
 18 41  1  0
 18 42  1  0
 19 20  2  0
 20 21  1  0
 20 43  1  0
 21 22  2  0
 21 44  1  0
 22 23  1  0
 22 45  1  0
 23 24  2  0
 23 46  1  0
 24 19  1  0
 24 47  1  0
 25 26  2  0
 26 27  1  0
 26 48  1  0
 27 28  2  0
 27 49  1  0
 28 29  1  0
 28 50  1  0
 29 30  2  0
 29 51  1  0
 30 25  1  0
 30 52  1  0
M  END
> <Name>
CHEMBL2312718

> <Clean Energy>
38.973099

> <chembl_id>
CHEMBL2312718

> <chembl_pref_name>
None

> <efficacy>
0.1

> <Forcefield>
MMFF

> <ForcefieldBase>
MMFF

> <ForcefieldFFML>
<?xml version="1.0" encoding="UTF-8"?>
<!DOCTYPE ffml SYSTEM "Ffml.dtd">
<ffml version="1.0">
<forcefield name="MMFF" derivedFrom="MMFF" base="MMFF">
<atomTypes>
<atomType
name="C100"
element="C"
mass="12.011"
annotation=""/>
<atomType
name="O101"
element="O"
mass="16"
annotation=""/>
<atomType
name="H102"
element="H"
mass="1.008"
annotation=""/>
</atomTypes>
<parameters>
</parameters>
</forcefield>
</ffml>

> <Initial Potential Energy>
243.82638

> <Initial RMS Gradient>
35.94571

> <Minimization Criteria>
STEEPD> Minimization exiting with gradient tolerance ( 3.0000000) satisfied.

> <CHARMm Energy>
105.28195

> <Potential Energy>
105.28195

> <RMS Gradient>
0.05923

> <Bond Energy>
9.26345

> <Angle Energy>
11.7874

> <STRBend>
-0.68123

> <Dihedral Energy>
12.87975

> <OOPLane>
0.00961

> <Van der Waals Energy>
65.02202

> <Electrostatic Energy>
7.00095

> <Hydrogen Bond Energy>
0

> <Solvation Free Energy>
0

> <HasGasteigerCharges>
true

> <REMARK99>
REMARK  99  MacroMolecule created from Mol2 file
REMARK  99  CHEMBL2312718
REMARK  99  PROTEIN
REMARK  99  GASTEIGER
REMARK  99
REMARK  99

$$$$
CHEMBL2338476
  SciTegic05292516403D

 44 47  0  0  0  0            999 V2000
   37.5293  -20.4949    0.4658 C   0  0
   36.9812  -20.7858   -0.7849 C   0  0
   36.4896  -19.7515   -1.5827 C   0  0
   36.4837  -18.4357   -1.1033 C   0  0
   36.9881  -18.1411    0.1660 C   0  0
   37.5231  -19.1782    0.9400 C   0  0
   36.2308  -15.4710    0.1215 S   0  0
   36.9485  -16.8493    0.7673 N   0  0
   34.4918  -15.8312    0.1444 C   0  0
   33.6127  -15.2140   -0.7501 C   0  0
   32.2653  -15.6004   -0.7686 C   0  0
   31.7994  -16.5725    0.1140 C   0  0
   32.6607  -17.1563    1.0368 C   0  0
   34.0053  -16.7839    1.0571 C   0  0
   36.9502  -22.0641   -1.2893 O   0  0
   35.9116  -22.8870   -0.8928 C   0  0
   36.6888  -15.3484   -1.2444 O   0  0
   36.4490  -14.4216    1.0951 O   0  0
   30.1509  -17.0573    0.0675 Cl  0  0
   34.0621  -13.9422   -1.8268 Cl  0  0
   38.2110  -21.7243    1.4661 Cl  0  0
   34.7423  -22.4518   -0.2657 C   0  0
   35.0878  -25.1752   -0.8207 C   0  0
   36.0742  -24.2463   -1.1763 C   0  0
   33.9190  -24.7447   -0.1702 C   0  0
   33.7463  -23.3674    0.1043 C   0  0
   32.5788  -22.9310    0.7467 C   0  0
   31.5898  -23.8379    1.1253 C   0  0
   31.7575  -25.1929    0.8643 C   0  0
   32.9127  -25.6437    0.2181 C   0  0
   36.0973  -19.9696   -2.5736 H   0  0
   36.0850  -17.6662   -1.7579 H   0  0
   37.9314  -18.9710    1.9260 H   0  0
   37.5091  -16.6503    1.5965 H   0  0
   31.5744  -15.1333   -1.4678 H   0  0
   32.2943  -17.9025    1.7383 H   0  0
   34.6600  -17.2488    1.7902 H   0  0
   34.5858  -21.3988   -0.0541 H   0  0
   35.2371  -26.2319   -1.0492 H   0  0
   36.9821  -24.5778   -1.6716 H   0  0
   32.4284  -21.8754    0.9613 H   0  0
   30.7003  -23.4629    1.6221 H   0  0
   30.9923  -25.9098    1.1592 H   0  0
   33.0179  -26.7114    0.0225 H   0  0
  1  2  1  0
  1  6  2  0
  1 21  1  0
  2  3  2  0
  2 15  1  0
  3  4  1  0
  3 31  1  0
  4  5  2  0
  4 32  1  0
  5  6  1  0
  5  8  1  0
  6 33  1  0
  7  8  1  0
  7  9  1  0
  7 17  2  0
  7 18  2  0
  8 34  1  0
  9 10  1  0
  9 14  2  0
 10 11  2  0
 10 20  1  0
 11 12  1  0
 11 35  1  0
 12 13  2  0
 12 19  1  0
 13 14  1  0
 13 36  1  0
 14 37  1  0
 15 16  1  0
 16 22  2  0
 22 26  1  0
 22 38  1  0
 23 24  2  0
 23 39  1  0
 24 16  1  0
 24 40  1  0
 25 23  1  0
 25 26  1  0
 26 27  2  0
 27 28  1  0
 27 41  1  0
 28 29  2  0
 28 42  1  0
 29 30  1  0
 29 43  1  0
 30 25  2  0
 30 44  1  0
M  END
> <Name>
CHEMBL2338476

> <Clean Energy>
33.4319

> <chembl_id>
CHEMBL2338476

> <chembl_pref_name>
None

> <efficacy>
0.18

> <Forcefield>
MMFF

> <ForcefieldBase>
MMFF

> <ForcefieldFFML>
<?xml version="1.0" encoding="UTF-8"?>
<!DOCTYPE ffml SYSTEM "Ffml.dtd">
<ffml version="1.0">
<forcefield name="MMFF" derivedFrom="MMFF" base="MMFF">
<atomTypes>
<atomType
name="C100"
element="C"
mass="12.011"
annotation=""/>
<atomType
name="S101"
element="S"
mass="32.066"
annotation=""/>
<atomType
name="N102"
element="N"
mass="14.007"
annotation=""/>
<atomType
name="O103"
element="O"
mass="16"
annotation=""/>
<atomType
name="Cl104"
element="Cl"
mass="35.453"
annotation=""/>
<atomType
name="H105"
element="H"
mass="1.008"
annotation=""/>
</atomTypes>
<parameters>
</parameters>
</forcefield>
</ffml>

> <Initial Potential Energy>
618.72754

> <Initial RMS Gradient>
278.12964

> <Minimization Criteria>
STEEPD> Minimization exiting with gradient tolerance ( 3.0000000) satisfied.

> <CHARMm Energy>
11.14098

> <Potential Energy>
11.14098

> <RMS Gradient>
0.02256

> <Bond Energy>
6.14367

> <Angle Energy>
16.17853

> <STRBend>
0.10823

> <Dihedral Energy>
3.89715

> <OOPLane>
0.04332

> <Van der Waals Energy>
64.83987

> <Electrostatic Energy>
-80.06979

> <Hydrogen Bond Energy>
0

> <Solvation Free Energy>
0

> <HasGasteigerCharges>
true

> <REMARK99>
REMARK  99  MacroMolecule created from Mol2 file
REMARK  99  CHEMBL2338476
REMARK  99  PROTEIN
REMARK  99  GASTEIGER
REMARK  99
REMARK  99

$$$$
CHEMBL435517
  SciTegic05292516403D

 62 65  0  0  0  0            999 V2000
   -0.2992   -1.6579   -0.0192 N   0  0
    0.8460   -0.9501    0.3962 C   0  0
    0.4707    0.3646    0.6864 C   0  0
   -1.2795   -0.7179   -0.3510 C   0  0
   -0.8663    0.5113    0.1623 C   0  0
   -0.4659   -3.0782   -0.0685 C   0  0
   -5.1775    2.4492   -0.7791 C   0  0
    7.6041    3.9237   -0.2649 C   0  0
   -2.5060   -0.8406   -1.0356 C   0  0
    1.1512    1.4878    1.4425 C   0  0
   -1.7594   -3.7919   -0.1809 C   0  0
   -1.7662    1.6048    0.0860 C   0  0
    5.2147    3.2577   -0.6081 O   0  0
    6.5729    3.0542   -0.9993 C   0  0  1  0  0  0
   -3.7880    2.6022   -0.5166 O   0  0
    0.5246   -3.8037    0.0218 O   0  0
   -3.0199    1.4724   -0.5275 C   0  0
    7.3797    4.9174    0.4092 O   0  0
    4.7005    2.4383    0.3637 C   0  0
    2.6558    1.5144    1.3448 C   0  0
   -1.9176   -4.7413   -1.1934 C   0  0
   -2.7884   -3.5780    0.7434 C   0  0
   -5.8131    3.6190   -0.5244 F   0  0
   -5.4122    2.1353   -2.0746 F   0  0
   -5.7424    1.5038    0.0095 F   0  0
   -3.3651    0.2620   -1.1090 C   0  0
    3.3074    2.2696    0.3515 C   0  0
    2.1631   -1.6373    0.5590 C   0  0
    8.8814    3.4825   -0.4409 O   0  0
   -4.1645   -5.2190   -0.3988 C   0  0
   -3.9925   -4.2876    0.6275 C   0  0
   -3.1219   -5.4390   -1.3042 C   0  0
   -5.2811   -5.9749   -0.6268 O   0  0
    4.8273    1.0689    2.3554 C   0  0
    5.4527    1.8434    1.3759 C   0  0
    3.4393    0.9156    2.3463 C   0  0
    6.6400    3.3960   -2.4873 C   0  0
   -6.3536   -5.8535    0.2999 C   0  0
   -2.8197   -1.7690   -1.5067 H   0  0
    0.7742    2.4586    1.0976 H   0  0
    0.8551    1.4161    2.4976 H   0  0
   -1.4807    2.5680    0.5023 H   0  0
    6.8485    1.9981   -0.8808 H   0  0
   -1.1124   -4.9449   -1.8953 H   0  0
   -2.6684   -2.8691    1.5592 H   0  0
   -4.3089    0.1210   -1.6331 H   0  0
    2.7249    2.7752   -0.4163 H   0  0
    2.9968   -0.9410    0.4702 H   0  0
    2.3381   -2.3664   -0.2376 H   0  0
    2.2218   -2.1380    1.5297 H   0  0
    8.9641    2.6761   -0.9848 H   0  0
   -4.7728   -4.0928    1.3565 H   0  0
   -3.2450   -6.1697   -2.0995 H   0  0
    5.4269    0.6138    3.1441 H   0  0
    6.5239    1.9928    1.4572 H   0  0
    2.9629    0.3416    3.1391 H   0  0
    5.9260    2.7878   -3.0533 H   0  0
    7.6405    3.2310   -2.8991 H   0  0
    6.3704    4.4446   -2.6583 H   0  0
   -7.1468   -6.5387   -0.0139 H   0  0
   -6.7652   -4.8389    0.2922 H   0  0
   -6.0385   -6.1440    1.3075 H   0  0
  2  1  1  0
  3  2  2  0
  3  5  1  0
  4  1  1  0
  5  4  1  0
  6  1  1  0
  7 15  1  0
  8 14  1  0
  9  4  2  0
  9 39  1  0
 10  3  1  0
 10 40  1  0
 10 41  1  0
 11  6  1  0
 12  5  2  0
 12 42  1  0
 13 19  1  0
 14 13  1  0
 14 43  1  0
 15 17  1  0
 16  6  2  0
 17 12  1  0
 17 26  2  0
 18  8  2  0
 19 27  2  0
 20 10  1  0
 21 11  1  0
 21 44  1  0
 22 11  2  0
 22 45  1  0
 23  7  1  0
 24  7  1  0
 25  7  1  0
 26  9  1  0
 26 46  1  0
 27 20  1  0
 27 47  1  0
 28  2  1  0
 28 48  1  0
 28 49  1  0
 28 50  1  0
 29  8  1  0
 29 51  1  0
 30 31  2  0
 30 32  1  0
 31 22  1  0
 31 52  1  0
 32 21  2  0
 32 53  1  0
 33 30  1  0
 34 36  1  0
 34 54  1  0
 35 19  1  0
 35 34  2  0
 35 55  1  0
 36 20  2  0
 36 56  1  0
 37 14  1  0
 37 57  1  0
 37 58  1  0
 37 59  1  0
 38 33  1  0
 38 60  1  0
 38 61  1  0
 38 62  1  0
M  END
> <Name>
CHEMBL435517

> <Clean Energy>
65.189598

> <chembl_id>
CHEMBL435517

> <chembl_pref_name>
None

> <efficacy>
0.24

> <Forcefield>
MMFF

> <ForcefieldBase>
MMFF

> <ForcefieldFFML>
<?xml version="1.0" encoding="UTF-8"?>
<!DOCTYPE ffml SYSTEM "Ffml.dtd">
<ffml version="1.0">
<forcefield name="MMFF" derivedFrom="MMFF" base="MMFF">
<atomTypes>
<atomType
name="N100"
element="N"
mass="14.007"
annotation=""/>
<atomType
name="C101"
element="C"
mass="12.011"
annotation=""/>
<atomType
name="O102"
element="O"
mass="16"
annotation=""/>
<atomType
name="F103"
element="F"
mass="18.998"
annotation=""/>
<atomType
name="H104"
element="H"
mass="1.008"
annotation=""/>
</atomTypes>
<parameters>
</parameters>
</forcefield>
</ffml>

> <Initial Potential Energy>
789.39571

> <Initial RMS Gradient>
353.06937

> <Minimization Criteria>
STEEPD> Minimization exiting with gradient tolerance ( 3.0000000) satisfied.

> <CHARMm Energy>
145.32056

> <Potential Energy>
145.32056

> <RMS Gradient>
0.03425

> <Bond Energy>
10.14956

> <Angle Energy>
34.44132

> <STRBend>
-0.41569

> <Dihedral Energy>
12.70224

> <OOPLane>
0.28769

> <Van der Waals Energy>
70.24855

> <Electrostatic Energy>
17.9069

> <Hydrogen Bond Energy>
0

> <Solvation Free Energy>
0

> <HasGasteigerCharges>
true

> <REMARK99>
REMARK  99  MacroMolecule created from Mol2 file
REMARK  99  CHEMBL435517
REMARK  99  PROTEIN
REMARK  99  GASTEIGER
REMARK  99
REMARK  99

$$$$
CHEMBL2204697
  SciTegic05292516403D

 57 59  0  0  0  0            999 V2000
   17.6766  -18.1336   -0.1068 C   0  0
   16.1485  -18.0250   -0.3393 C   0  0
   18.2145  -18.6820    0.8469 O   0  0
   18.4428  -17.5609   -1.0741 O   0  0
   15.5545  -18.6995    0.7962 O   0  0
   14.2048  -18.5703    0.9510 C   0  0
   13.3360  -19.4703    0.3396 C   0  0
   11.9608  -19.3458    0.5320 C   0  0
   11.4524  -18.3409    1.3649 C   0  0
   12.3385  -17.4680    2.0092 C   0  0
   13.7127  -17.5952    1.8164 C   0  0
    9.9656  -18.1830    1.5467 C   0  0
    9.3737  -17.2366    0.5037 C   0  0
    7.8724  -17.0729    0.7046 C   0  0
    7.3739  -16.1874   -0.3002 O   0  0
    6.0369  -15.9092   -0.2818 C   0  0
    5.1021  -16.4245    0.6151 C   0  0
    3.7583  -16.0491    0.5154 C   0  0
    3.3353  -15.1517   -0.4696 C   0  0
    4.2764  -14.6510   -1.3743 C   0  0
    5.6174  -15.0243   -1.2771 C   0  0
    1.9743  -14.8131   -0.5577 N   0  0
    1.8120  -13.5974   -0.3104 N   0  0
    0.4482  -13.2692   -0.3850 C   0  0
   -0.2469  -12.9422    0.7839 C   0  0
   -1.5974  -12.5971    0.7301 C   0  0
   -2.2584  -12.5677   -0.4969 C   0  0
   -1.5720  -12.8774   -1.6701 C   0  0
   -0.2219  -13.2225   -1.6140 C   0  0
   15.7762  -16.5351   -0.4094 C   0  0
   15.8099  -18.7588   -1.6446 C   0  0
   17.9532  -17.1397   -1.8035 H   0  0
   13.7227  -20.2735   -0.2802 H   0  0
   11.2841  -20.0363    0.0332 H   0  0
   11.9577  -16.6865    2.6635 H   0  0
   14.3977  -16.9330    2.3383 H   0  0
    9.4826  -19.1666    1.4852 H   0  0
    9.7595  -17.8100    2.5580 H   0  0
    9.8565  -16.2522    0.5550 H   0  0
    9.5687  -17.6075   -0.5110 H   0  0
    7.3845  -18.0511    0.6135 H   0  0
    7.6818  -16.6525    1.6995 H   0  0
    5.3779  -17.1186    1.4013 H   0  0
    3.0305  -16.4547    1.2137 H   0  0
    3.9640  -13.9644   -2.1558 H   0  0
    6.3388  -14.6216   -1.9831 H   0  0
    0.2682  -12.9613    1.7401 H   0  0
   -2.1327  -12.3495    1.6431 H   0  0
   -3.3100  -12.2994   -0.5397 H   0  0
   -2.0874  -12.8485   -2.6267 H   0  0
    0.3131  -13.4607   -2.5292 H   0  0
   14.7055  -16.3937   -0.5915 H   0  0
   16.3041  -16.0101   -1.2116 H   0  0
   16.0180  -16.0296    0.5326 H   0  0
   14.7512  -18.6526   -1.9013 H   0  0
   16.0157  -19.8311   -1.5502 H   0  0
   16.3828  -18.3823   -2.4977 H   0  0
  1  2  1  0
  1  3  2  0
  1  4  1  0
  2  5  1  0
  2 30  1  0
  2 31  1  0
  4 32  1  0
  5  6  1  0
  6  7  1  0
  6 11  2  0
  7  8  2  0
  7 33  1  0
  8  9  1  0
  8 34  1  0
  9 10  2  0
  9 12  1  0
 10 11  1  0
 10 35  1  0
 11 36  1  0
 12 13  1  0
 12 37  1  0
 12 38  1  0
 13 14  1  0
 13 39  1  0
 13 40  1  0
 14 15  1  0
 14 41  1  0
 14 42  1  0
 15 16  1  0
 16 17  1  0
 16 21  2  0
 17 18  2  0
 17 43  1  0
 18 19  1  0
 18 44  1  0
 19 20  2  0
 19 22  1  0
 20 21  1  0
 20 45  1  0
 21 46  1  0
 22 23  2  0
 23 24  1  0
 24 25  1  0
 24 29  2  0
 25 26  2  0
 25 47  1  0
 26 27  1  0
 26 48  1  0
 27 28  2  0
 27 49  1  0
 28 29  1  0
 28 50  1  0
 29 51  1  0
 30 52  1  0
 30 53  1  0
 30 54  1  0
 31 55  1  0
 31 56  1  0
 31 57  1  0
M  END
> <Name>
CHEMBL2204697

> <Clean Energy>
19.304399

> <chembl_id>
CHEMBL2204697

> <chembl_pref_name>
None

> <efficacy>
0.341880342

> <Forcefield>
MMFF

> <ForcefieldBase>
MMFF

> <ForcefieldFFML>
<?xml version="1.0" encoding="UTF-8"?>
<!DOCTYPE ffml SYSTEM "Ffml.dtd">
<ffml version="1.0">
<forcefield name="MMFF" derivedFrom="MMFF" base="MMFF">
<atomTypes>
<atomType
name="C100"
element="C"
mass="12.011"
annotation=""/>
<atomType
name="O101"
element="O"
mass="16"
annotation=""/>
<atomType
name="N102"
element="N"
mass="14.007"
annotation=""/>
<atomType
name="H103"
element="H"
mass="1.008"
annotation=""/>
</atomTypes>
<parameters>
</parameters>
</forcefield>
</ffml>

> <Initial Potential Energy>
165.5223

> <Initial RMS Gradient>
30.51475

> <Minimization Criteria>
STEEPD> Minimization exiting with gradient tolerance ( 3.0000000) satisfied.

> <CHARMm Energy>
89.06962

> <Potential Energy>
89.06962

> <RMS Gradient>
0.05061

> <Bond Energy>
5.87926

> <Angle Energy>
14.57391

> <STRBend>
0.45211

> <Dihedral Energy>
12.53303

> <OOPLane>
0.08556

> <Van der Waals Energy>
63.49484

> <Electrostatic Energy>
-7.94909

> <Hydrogen Bond Energy>
0

> <Solvation Free Energy>
0

> <HasGasteigerCharges>
true

> <REMARK99>
REMARK  99  MacroMolecule created from Mol2 file
REMARK  99  CHEMBL2204697
REMARK  99  PROTEIN
REMARK  99  GASTEIGER
REMARK  99
REMARK  99

$$$$
CHEMBL2322446
  SciTegic05292516403D

 69 75  0  0  0  0            999 V2000
   39.2710  -22.6948   -0.7392 C   0  0
   39.7736  -23.5445    0.2445 C   0  0
   40.5573  -23.0277    1.2655 C   0  0
   40.8403  -21.6631    1.2968 C   0  0
   40.3529  -20.7855    0.3049 C   0  0
   39.5402  -21.3093   -0.7275 C   0  0
   36.5406  -20.4647   -1.0541 C   0  0
   37.7224  -19.7236   -1.3402 N   0  0
   37.7738  -18.3270   -1.2233 C   0  0
   36.7277  -17.6182   -0.7608 C   0  0
   35.4782  -19.6662   -0.4940 C   0  0
   35.5592  -18.3070   -0.3680 C   0  0
   34.4639  -17.7595    0.1959 N   0  0
   33.6717  -18.7925    0.4633 C   0  0
   34.2598  -19.9941    0.0629 N   0  0
   32.3220  -18.6738    1.1069 C   0  0
   32.1685  -17.3836    1.9008 C   0  0
   33.8197  -21.3628    0.3088 C   0  0  1  0  0  0
   32.8841  -22.8760    2.0171 C   0  0
   33.9443  -21.7905    1.7863 C   0  0
   31.8550  -22.5366    0.9819 C   0  0
   32.3786  -21.6784    0.0051 C   0  0
   31.6203  -21.3189   -1.0963 C   0  0
   30.3081  -21.7929   -1.1822 C   0  0
   29.7572  -22.6410   -0.1922 C   0  0
   30.5576  -23.0182    0.8992 C   0  0
   28.3542  -23.0873   -0.2859 C   0  0
   27.3500  -22.1049   -0.1208 C   0  0
   25.9936  -22.4268   -0.1499 C   0  0
   25.6036  -23.7437   -0.3378 C   0  0
   26.5751  -24.7299   -0.5020 C   0  0
   27.9533  -24.4304   -0.4889 C   0  0
   28.8610  -25.5632   -0.7039 C   0  0
   30.0978  -25.5120   -1.2861 N   0  0
   30.6180  -26.7417   -1.3983 N   0  0
   29.7066  -27.5485   -0.8799 N   0  0
   28.6089  -26.8408   -0.4596 N   0  0
   36.4404  -21.6698   -1.2659 O   0  0
   38.8974  -20.4553   -1.8114 C   0  0
   40.6974  -19.3157    0.4278 C   0  0
   41.7522  -19.0703    1.2595 F   0  0
   39.6595  -18.5878    0.9228 F   0  0
   41.0409  -18.7362   -0.7577 F   0  0
   38.6297  -23.1234   -1.5106 H   0  0
   39.5388  -24.6060    0.2176 H   0  0
   40.9466  -23.6839    2.0401 H   0  0
   41.4504  -21.2780    2.1136 H   0  0
   38.6995  -17.8286   -1.5071 H   0  0
   36.7743  -16.5395   -0.6550 H   0  0
   31.5528  -18.7012    0.3276 H   0  0
   32.1370  -19.5075    1.7886 H   0  0
   31.1800  -17.3440    2.3696 H   0  0
   32.2704  -16.5039    1.2563 H   0  0
   32.9233  -17.3139    2.6915 H   0  0
   34.4077  -22.0427   -0.3115 H   0  0
   33.2938  -23.8727    1.8233 H   0  0
   32.4819  -22.8297    3.0332 H   0  0
   33.7513  -20.9497    2.4644 H   0  0
   34.9523  -22.1488    2.0236 H   0  0
   32.0267  -20.6768   -1.8737 H   0  0
   29.6976  -21.4924   -2.0339 H   0  0
   30.1571  -23.6724    1.6736 H   0  0
   27.6256  -21.0653    0.0533 H   0  0
   25.2440  -21.6511   -0.0150 H   0  0
   24.5503  -24.0063   -0.3556 H   0  0
   26.2532  -25.7589   -0.6516 H   0  0
   30.6077  -24.7176   -1.6450 H   0  0
   38.5748  -21.0983   -2.6411 H   0  0
   39.6339  -19.7715   -2.2464 H   0  0
  1  2  2  0
  1 44  1  0
  2  3  1  0
  2 45  1  0
  3  4  2  0
  3 46  1  0
  4  5  1  0
  4 47  1  0
  5  6  2  0
  5 40  1  0
  6  1  1  0
  7  8  1  0
  7 38  2  0
  8  9  1  0
  8 39  1  0
  9 10  2  0
  9 48  1  0
 10 12  1  0
 10 49  1  0
 11  7  1  0
 11 12  2  0
 12 13  1  0
 13 14  2  0
 14 15  1  0
 14 16  1  0
 15 11  1  0
 16 17  1  0
 16 50  1  0
 16 51  1  0
 17 52  1  0
 17 53  1  0
 17 54  1  0
 18 15  1  0
 18 22  1  0
 18 55  1  0
 19 20  1  0
 19 56  1  0
 19 57  1  0
 20 18  1  0
 20 58  1  0
 20 59  1  0
 21 19  1  0
 21 22  2  0
 22 23  1  0
 23 24  2  0
 23 60  1  0
 24 25  1  0
 24 61  1  0
 25 26  2  0
 25 27  1  0
 26 21  1  0
 26 62  1  0
 27 28  2  0
 28 29  1  0
 28 63  1  0
 29 30  2  0
 29 64  1  0
 30 31  1  0
 30 65  1  0
 31 32  2  0
 31 66  1  0
 32 27  1  0
 32 33  1  0
 33 34  1  0
 34 35  1  0
 34 67  1  0
 35 36  2  0
 36 37  1  0
 37 33  2  0
 39  6  1  0
 39 68  1  0
 39 69  1  0
 40 41  1  0
 40 42  1  0
 40 43  1  0
M  END
> <Name>
CHEMBL2322446

> <Clean Energy>
125.249001

> <chembl_id>
CHEMBL2322446

> <chembl_pref_name>
None

> <efficacy>
0.27173913

> <Forcefield>
MMFF

> <ForcefieldBase>
MMFF

> <ForcefieldFFML>
<?xml version="1.0" encoding="UTF-8"?>
<!DOCTYPE ffml SYSTEM "Ffml.dtd">
<ffml version="1.0">
<forcefield name="MMFF" derivedFrom="MMFF" base="MMFF">
<atomTypes>
<atomType
name="C100"
element="C"
mass="12.011"
annotation=""/>
<atomType
name="N101"
element="N"
mass="14.007"
annotation=""/>
<atomType
name="O102"
element="O"
mass="16"
annotation=""/>
<atomType
name="F103"
element="F"
mass="18.998"
annotation=""/>
<atomType
name="H104"
element="H"
mass="1.008"
annotation=""/>
</atomTypes>
<parameters>
</parameters>
</forcefield>
</ffml>

> <Initial Potential Energy>
287.54929

> <Initial RMS Gradient>
36.57376

> <Minimization Criteria>
STEEPD> Minimization exiting with gradient tolerance ( 3.0000000) satisfied.

> <CHARMm Energy>
83.37829

> <Potential Energy>
83.37829

> <RMS Gradient>
0.0221

> <Bond Energy>
11.96257

> <Angle Energy>
20.70925

> <STRBend>
-0.61153

> <Dihedral Energy>
7.22793

> <OOPLane>
0.22483

> <Van der Waals Energy>
71.74297

> <Electrostatic Energy>
-27.87774

> <Hydrogen Bond Energy>
0

> <Solvation Free Energy>
0

> <HasGasteigerCharges>
true

> <REMARK99>
REMARK  99  MacroMolecule created from Mol2 file
REMARK  99  CHEMBL2322446
REMARK  99  PROTEIN
REMARK  99  GASTEIGER
REMARK  99
REMARK  99

$$$$
CHEMBL4288574
  SciTegic05292516403D

 78 82  0  0  0  0            999 V2000
   47.3451   -5.7986   -0.5825 O   0  0
   46.9703   -5.3560    0.7411 S   0  0
   47.4294   -6.0379    1.9326 O   0  0
   34.9653   -2.2727   -1.4619 C   0  0
   34.7748   -3.2789   -0.5164 C   0  0
   35.8921   -3.9044    0.0733 C   0  0
   36.2545   -1.8792   -1.8425 C   0  0
   37.3515   -2.5119   -1.2433 C   0  0
   37.2052   -3.5191   -0.2872 C   0  0
   38.5254   -3.9388    0.1199 C   0  0
   39.4136   -3.1550   -0.6006 C   0  0
   38.7032   -2.3273   -1.4253 N   0  0
   39.2948   -1.3930   -2.3564 C   0  0
   33.4977   -3.7122   -0.0972 N   0  0
   32.2587   -3.2671   -0.5357 C   0  0
   31.2338   -3.8928    0.1534 N   0  0
   32.0341   -2.4424   -1.4122 O   0  0
   29.8313   -3.6124   -0.1232 C   0  0
   38.8119   -5.0049    1.1442 C   0  0
   40.2770   -5.3935    1.0640 C   0  0
   40.7281   -6.3922    0.1759 C   0  0
   42.0939   -6.6872    0.1009 C   0  0
   43.0158   -5.9845    0.8869 C   0  0
   42.5776   -5.0136    1.7906 C   0  0
   41.2149   -4.7242    1.8783 C   0  0
   39.7620   -7.0143   -0.5717 O   0  0
   40.2039   -7.9404   -1.5588 C   0  0
   44.4501   -6.2908    0.6941 C   0  0
   44.8067   -7.4151    0.3846 O   0  0
   45.3140   -5.2014    0.8615 N   0  0
   47.4843   -3.6438    0.8871 C   0  0
   47.2855   -2.7162   -0.1559 C   0  0
   47.7467   -1.4014    0.0320 C   0  0
   48.3723   -1.0188    1.2206 C   0  0
   48.5575   -1.9441    2.2423 C   0  0
   48.1205   -3.2563    2.0778 C   0  0
   46.6626   -3.0697   -1.4786 C   0  0
   29.3540   -2.4031    0.6908 C   0  0
   27.8677   -2.1299    0.4743 C   0  0
   27.0194   -3.3651    0.7618 C   0  0
   27.4907   -4.5713   -0.0451 C   0  0
   28.9754   -4.8487    0.1740 C   0  0
   34.1224   -1.7666   -1.9322 H   0  0
   35.7406   -4.6866    0.8112 H   0  0
   36.3921   -1.1017   -2.5854 H   0  0
   40.4964   -3.1371   -0.6050 H   0  0
   38.9735   -0.3841   -2.0852 H   0  0
   38.9592   -1.6491   -3.3646 H   0  0
   40.3845   -1.4599   -2.3024 H   0  0
   33.4586   -4.4510    0.5851 H   0  0
   31.4612   -4.4446    0.9652 H   0  0
   29.7375   -3.3733   -1.1905 H   0  0
   38.5794   -4.6227    2.1458 H   0  0
   38.1711   -5.8800    0.9876 H   0  0
   42.4775   -7.4497   -0.5736 H   0  0
   43.2766   -4.4989    2.4467 H   0  0
   40.8808   -3.9596    2.5779 H   0  0
   40.8614   -7.4586   -2.2900 H   0  0
   39.3202   -8.3000   -2.0950 H   0  0
   40.6862   -8.8080   -1.0968 H   0  0
   44.9616   -4.2591    0.9771 H   0  0
   47.6319   -0.6593   -0.7571 H   0  0
   48.7282    0.0017    1.3418 H   0  0
   49.0571   -1.6496    3.1623 H   0  0
   48.2954   -3.9718    2.8804 H   0  0
   46.3887   -2.1687   -2.0389 H   0  0
   45.7401   -3.6410   -1.3466 H   0  0
   47.3691   -3.6379   -2.0908 H   0  0
   29.5400   -2.5772    1.7589 H   0  0
   29.9317   -1.5116    0.4183 H   0  0
   27.5471   -1.3044    1.1197 H   0  0
   27.7040   -1.8078   -0.5614 H   0  0
   27.0693   -3.6006    1.8321 H   0  0
   25.9694   -3.1537    0.5299 H   0  0
   26.9053   -5.4541    0.2357 H   0  0
   27.3066   -4.3918   -1.1116 H   0  0
   29.2906   -5.6834   -0.4640 H   0  0
   29.1345   -5.1740    1.2106 H   0  0
  2  1  2  0
  2 31  1  0
  3  2  2  0
  4  5  2  0
  4 43  1  0
  5  6  1  0
  5 14  1  0
  6  9  2  0
  6 44  1  0
  7  4  1  0
  7 45  1  0
  8  7  2  0
  8  9  1  0
  9 10  1  0
 10 11  2  0
 10 19  1  0
 11 12  1  0
 11 46  1  0
 12  8  1  0
 12 13  1  0
 13 47  1  0
 13 48  1  0
 13 49  1  0
 14 15  1  0
 14 50  1  0
 15 16  1  0
 15 17  2  0
 16 18  1  0
 16 51  1  0
 18 38  1  0
 18 42  1  0
 18 52  1  0
 19 20  1  0
 19 53  1  0
 19 54  1  0
 20 21  2  0
 21 22  1  0
 21 26  1  0
 22 23  2  0
 22 55  1  0
 23 24  1  0
 23 28  1  0
 24 25  2  0
 24 56  1  0
 25 20  1  0
 25 57  1  0
 26 27  1  0
 27 58  1  0
 27 59  1  0
 27 60  1  0
 28 29  2  0
 28 30  1  0
 30  2  1  0
 30 61  1  0
 31 32  2  0
 32 33  1  0
 32 37  1  0
 33 34  2  0
 33 62  1  0
 34 35  1  0
 34 63  1  0
 35 36  2  0
 35 64  1  0
 36 31  1  0
 36 65  1  0
 37 66  1  0
 37 67  1  0
 37 68  1  0
 38 39  1  0
 38 69  1  0
 38 70  1  0
 39 40  1  0
 39 71  1  0
 39 72  1  0
 40 41  1  0
 40 73  1  0
 40 74  1  0
 41 42  1  0
 41 75  1  0
 41 76  1  0
 42 77  1  0
 42 78  1  0
M  END
> <Name>
CHEMBL4288574

> <Clean Energy>
57.262798

> <chembl_id>
CHEMBL4288574

> <chembl_pref_name>
None

> <efficacy>
0.44634378

> <Forcefield>
MMFF

> <ForcefieldBase>
MMFF

> <ForcefieldFFML>
<?xml version="1.0" encoding="UTF-8"?>
<!DOCTYPE ffml SYSTEM "Ffml.dtd">
<ffml version="1.0">
<forcefield name="MMFF" derivedFrom="MMFF" base="MMFF">
<atomTypes>
<atomType
name="O100"
element="O"
mass="16"
annotation=""/>
<atomType
name="S101"
element="S"
mass="32.066"
annotation=""/>
<atomType
name="C102"
element="C"
mass="12.011"
annotation=""/>
<atomType
name="N103"
element="N"
mass="14.007"
annotation=""/>
<atomType
name="H104"
element="H"
mass="1.008"
annotation=""/>
</atomTypes>
<parameters>
</parameters>
</forcefield>
</ffml>

> <Initial Potential Energy>
120.72844

> <Initial RMS Gradient>
42.19991

> <Minimization Criteria>
STEEPD> Minimization exiting with gradient tolerance ( 3.0000000) satisfied.

> <CHARMm Energy>
-85.52858

> <Potential Energy>
-85.52858

> <RMS Gradient>
0.03718

> <Bond Energy>
9.2214

> <Angle Energy>
19.55713

> <STRBend>
0.14239

> <Dihedral Energy>
-11.28261

> <OOPLane>
0.12058

> <Van der Waals Energy>
77.91168

> <Electrostatic Energy>
-181.19915

> <Hydrogen Bond Energy>
0

> <Solvation Free Energy>
0

> <HasGasteigerCharges>
true

> <REMARK99>
REMARK  99  MacroMolecule created from Mol2 file
REMARK  99  CHEMBL4288574
REMARK  99  PROTEIN
REMARK  99  GASTEIGER
REMARK  99
REMARK  99

$$$$
CHEMBL1956371
  SciTegic05292516403D

 29 30  0  0  0  0            999 V2000
   13.6207  -19.8076   -1.3389 C   0  0
   14.0323  -21.1173   -1.5970 C   0  0
   14.5629  -21.8917   -0.5686 C   0  0
   14.6861  -21.3677    0.7163 C   0  0
   14.2742  -20.0581    0.9760 C   0  0
   13.7294  -19.2647   -0.0475 C   0  0
    8.5492  -17.0953   -0.1653 C   0  0
    8.2687  -17.9371    0.9032 C   0  0
    9.2919  -18.6574    1.5200 C   0  0
   10.6130  -18.5307    1.0716 C   0  0
   10.9116  -17.6749    0.0099 C   0  0
    9.8643  -16.9759   -0.6038 C   0  0
   12.1524  -17.4691   -0.5257 O   0  0
   13.3093  -17.8288    0.2400 C   0  0  2  0  0  0
   14.4423  -16.8567   -0.1201 C   0  0
   15.5168  -16.9735    0.6979 O   0  0
   14.4609  -16.0212   -1.0107 O   0  0
   10.1196  -16.1589   -1.6369 F   0  0
    6.6512  -18.0960    1.4664 Cl  0  0
   15.0779  -23.5021   -0.8876 Cl  0  0
   13.2138  -19.2108   -2.1549 H   0  0
   13.9392  -21.5228   -2.6011 H   0  0
   15.1081  -21.9698    1.5167 H   0  0
   14.3932  -19.6580    1.9814 H   0  0
    7.7673  -16.5320   -0.6630 H   0  0
    9.0677  -19.3265    2.3478 H   0  0
   11.3736  -19.1285    1.5626 H   0  0
   13.1122  -17.6699    1.3087 H   0  0
   16.1490  -16.3145    0.3384 H   0  0
  1  2  2  0
  1 21  1  0
  2  3  1  0
  2 22  1  0
  3  4  2  0
  3 20  1  0
  4  5  1  0
  4 23  1  0
  5  6  2  0
  5 24  1  0
  6  1  1  0
  7  8  2  0
  7 25  1  0
  8  9  1  0
  8 19  1  0
  9 10  2  0
  9 26  1  0
 10 11  1  0
 10 27  1  0
 11 12  2  0
 11 13  1  0
 12  7  1  0
 12 18  1  0
 13 14  1  0
 14  6  1  0
 14 15  1  0
 14 28  1  0
 15 16  1  0
 15 17  2  0
 16 29  1  0
M  END
> <Name>
CHEMBL1956371

> <Clean Energy>
27.810699

> <chembl_id>
CHEMBL1956371

> <chembl_pref_name>
None

> <efficacy>
0.227920228

> <Forcefield>
MMFF

> <ForcefieldBase>
MMFF

> <ForcefieldFFML>
<?xml version="1.0" encoding="UTF-8"?>
<!DOCTYPE ffml SYSTEM "Ffml.dtd">
<ffml version="1.0">
<forcefield name="MMFF" derivedFrom="MMFF" base="MMFF">
<atomTypes>
<atomType
name="C100"
element="C"
mass="12.011"
annotation=""/>
<atomType
name="O101"
element="O"
mass="16"
annotation=""/>
<atomType
name="F102"
element="F"
mass="18.998"
annotation=""/>
<atomType
name="Cl103"
element="Cl"
mass="35.453"
annotation=""/>
<atomType
name="H104"
element="H"
mass="1.008"
annotation=""/>
</atomTypes>
<parameters>
</parameters>
</forcefield>
</ffml>

> <Initial Potential Energy>
220.27139

> <Initial RMS Gradient>
41.33308

> <Minimization Criteria>
CONJUG> Minimization exiting with gradient tolerance ( 0.0100000) satisfied.

> <CHARMm Energy>
74.51624

> <Potential Energy>
74.51624

> <RMS Gradient>
0.00997

> <Bond Energy>
3.66069

> <Angle Energy>
10.58307

> <STRBend>
0.31847

> <Dihedral Energy>
3.11514

> <OOPLane>
0.02431

> <Van der Waals Energy>
34.46295

> <Electrostatic Energy>
22.35162

> <Hydrogen Bond Energy>
0

> <Solvation Free Energy>
0

> <HasGasteigerCharges>
true

> <REMARK99>
REMARK  99  MacroMolecule created from Mol2 file
REMARK  99  CHEMBL1956371
REMARK  99  PROTEIN
REMARK  99  GASTEIGER
REMARK  99
REMARK  99

$$$$
CHEMBL199125
  SciTegic05292516403D

 64 65  0  0  0  0            999 V2000
   -2.0905   -0.7572   -0.2524 C   0  0
   -2.1674   -2.0996   -0.6173 C   0  0
   -3.2291   -2.9042   -0.3645 N   0  0
   -3.1799   -0.2428    0.4628 C   0  0
   -4.2685   -2.3861    0.3085 C   0  0
   -4.2884   -1.0493    0.7535 C   0  0
    8.0688    1.7541    2.4919 C   0  0
   -0.9136    0.1177   -0.6245 C   0  0  1  0  0  0
    9.1816    1.8301    3.0022 O   0  0
   -1.0465   -2.6352   -1.2336 O   0  0
    7.6595    0.7542    1.6638 O   0  0
   -1.4155    1.3830   -1.0811 O   0  0
    6.9611    2.7561    2.7594 C   0  0
   -5.3683   -3.1867    0.5872 C   0  0
   -5.3983   -0.5539    1.4606 C   0  0
    0.0609    0.3118    0.5473 C   0  0
   -1.2549   -3.9717   -1.7043 C   0  0
    8.6768   -0.2072    1.3809 C   0  0
    5.8428    2.8271    1.7090 C   0  0
    1.3146    1.1087    0.1529 C   0  0
    0.0188   -4.4120   -2.4226 C   0  0
    1.1783   -6.2674   -3.6791 C   0  0
   -0.1006   -5.8356   -2.9623 C   0  0
    2.3606    1.1084    1.2774 C   0  0
    3.5893    1.9550    0.9210 C   0  0
    4.6756    1.8726    2.0037 C   0  0
    1.0639   -7.6850   -4.2167 C   0  0
   -6.4887   -1.3792    1.7272 C   0  0
   -6.4744   -2.6984    1.2894 C   0  0
   -3.1697    0.7976    0.7832 H   0  0
   -0.3780   -0.3108   -1.4787 H   0  0
   -2.2110    1.2069   -1.6221 H   0  0
    6.5506    2.5564    3.7547 H   0  0
    7.4500    3.7381    2.7848 H   0  0
   -5.3638   -4.2205    0.2499 H   0  0
   -5.4175    0.4773    1.8061 H   0  0
   -0.4403    0.8408    1.3681 H   0  0
    0.3635   -0.6702    0.9327 H   0  0
   -1.4459   -4.6438   -0.8585 H   0  0
   -2.0980   -4.0008   -2.4060 H   0  0
    8.2603   -0.9465    0.6911 H   0  0
    8.9821   -0.7226    2.2969 H   0  0
    9.5351    0.2703    0.8977 H   0  0
    5.4457    3.8504    1.7038 H   0  0
    6.2409    2.6408    0.7046 H   0  0
    1.7595    0.6722   -0.7495 H   0  0
    1.0328    2.1400   -0.0902 H   0  0
    0.2341   -3.7124   -3.2401 H   0  0
    0.8684   -4.3375   -1.7322 H   0  0
    1.3887   -5.5837   -4.5098 H   0  0
    2.0287   -6.2119   -2.9896 H   0  0
   -0.9487   -5.8960   -3.6552 H   0  0
   -0.3092   -6.5255   -2.1355 H   0  0
    1.9089    1.4947    2.1991 H   0  0
    2.6737    0.0767    1.4792 H   0  0
    4.0067    1.6165   -0.0351 H   0  0
    3.2800    2.9987    0.7870 H   0  0
    5.0384    0.8411    2.0749 H   0  0
    4.2398    2.1279    2.9774 H   0  0
    1.9890   -7.9731   -4.7257 H   0  0
    0.2415   -7.7672   -4.9344 H   0  0
    0.8856   -8.3987   -3.4061 H   0  0
   -7.3452   -0.9936    2.2743 H   0  0
   -7.3190   -3.3519    1.4920 H   0  0
  2  1  1  0
  3  2  2  0
  3  5  1  0
  4  1  2  0
  4 30  1  0
  5  6  2  0
  6  4  1  0
  7 13  1  0
  8  1  1  0
  8 31  1  0
  9  7  2  0
 10  2  1  0
 11  7  1  0
 12  8  1  0
 12 32  1  0
 13 19  1  0
 13 33  1  0
 13 34  1  0
 14  5  1  0
 14 29  2  0
 14 35  1  0
 15  6  1  0
 15 36  1  0
 16  8  1  0
 16 37  1  0
 16 38  1  0
 17 10  1  0
 17 39  1  0
 17 40  1  0
 18 11  1  0
 18 41  1  0
 18 42  1  0
 18 43  1  0
 19 26  1  0
 19 44  1  0
 19 45  1  0
 20 16  1  0
 20 46  1  0
 20 47  1  0
 21 17  1  0
 21 48  1  0
 21 49  1  0
 22 23  1  0
 22 50  1  0
 22 51  1  0
 23 21  1  0
 23 52  1  0
 23 53  1  0
 24 20  1  0
 24 54  1  0
 24 55  1  0
 25 24  1  0
 25 56  1  0
 25 57  1  0
 26 25  1  0
 26 58  1  0
 26 59  1  0
 27 22  1  0
 27 60  1  0
 27 61  1  0
 27 62  1  0
 28 15  2  0
 28 63  1  0
 29 28  1  0
 29 64  1  0
M  END
> <Name>
CHEMBL199125

> <Clean Energy>
27.4496

> <chembl_id>
CHEMBL199125

> <chembl_pref_name>
None

> <efficacy>
0.41

> <Forcefield>
MMFF

> <ForcefieldBase>
MMFF

> <ForcefieldFFML>
<?xml version="1.0" encoding="UTF-8"?>
<!DOCTYPE ffml SYSTEM "Ffml.dtd">
<ffml version="1.0">
<forcefield name="MMFF" derivedFrom="MMFF" base="MMFF">
<atomTypes>
<atomType
name="C100"
element="C"
mass="12.011"
annotation=""/>
<atomType
name="N101"
element="N"
mass="14.007"
annotation=""/>
<atomType
name="O102"
element="O"
mass="16"
annotation=""/>
<atomType
name="H103"
element="H"
mass="1.008"
annotation=""/>
</atomTypes>
<parameters>
</parameters>
</forcefield>
</ffml>

> <Initial Potential Energy>
136.02884

> <Initial RMS Gradient>
29.71872

> <Minimization Criteria>
CONJUG> Minimization exiting with gradient tolerance ( 0.0100000) satisfied.

> <CHARMm Energy>
3.66513

> <Potential Energy>
3.66513

> <RMS Gradient>
0.00994

> <Bond Energy>
5.20121

> <Angle Energy>
9.37356

> <STRBend>
1.04555

> <Dihedral Energy>
-15.13387

> <OOPLane>
0.0469

> <Van der Waals Energy>
53.18944

> <Electrostatic Energy>
-50.05766

> <Hydrogen Bond Energy>
0

> <Solvation Free Energy>
0

> <HasGasteigerCharges>
true

> <REMARK99>
REMARK  99  MacroMolecule created from Mol2 file
REMARK  99  CHEMBL199125
REMARK  99  PROTEIN
REMARK  99  GASTEIGER
REMARK  99
REMARK  99

$$$$
CHEMBL1967191
  SciTegic05292516403D

 54 55  0  0  0  0            999 V2000
   -4.2123   -2.3462   -0.1102 S   0  0
   -0.0419   -6.5420   -0.2030 O   0  0
  -10.0768    2.4850   -1.1750 O   0  0
   -1.3031   -5.1546    1.1310 O   0  0
   -2.1926   -1.9526   -3.0220 O   0  0
   -0.8667   -3.6982   -3.3835 O   0  0
   -1.1012   -4.8301   -1.1115 N   0  0
   -8.5338    0.7291   -0.7482 C   0  0
   -9.7854    1.5000   -0.4987 C   0  0
  -10.7220    1.0794    0.5679 C   0  0
   -6.1439   -0.6906   -1.2563 C   0  0
   -7.4256    1.3909   -1.2826 C   0  0
   -8.4593   -0.6462   -0.4954 C   0  0
   -1.8746   -3.5745   -1.1876 C   0  0  1  0  0  0
   -6.2373    0.6858   -1.5271 C   0  0
   -7.2773   -1.3478   -0.7531 C   0  0
   -0.8465   -5.4897    0.0501 C   0  0
    0.3745   -7.4241    0.8708 C   0  0
   -4.8748   -1.4618   -1.5691 C   0  0
  -10.2686    0.8121    1.8635 C   0  0
  -12.0831    0.9849    0.2668 C   0  0
   -1.6903   -2.9746   -2.5849 C   0  0
   -3.3745   -3.7828   -0.9082 C   0  0
  -11.1721    0.4050    2.8457 C   0  0
  -12.9837    0.5810    1.2531 C   0  0
  -12.5278    0.2863    2.5392 C   0  0
   -0.8258   -8.1354    1.5056 C   0  0
    1.2631   -8.4759    0.1891 C   0  0
    1.2139   -6.6761    1.9127 C   0  0
   -0.8335   -3.1801   -4.2180 H   0  0
   -0.6012   -5.1607   -1.9338 H   0  0
   -7.4843    2.4553   -1.5068 H   0  0
   -9.3148   -1.1979   -0.1151 H   0  0
   -1.4155   -2.8941   -0.4610 H   0  0
   -5.3883    1.2269   -1.9416 H   0  0
   -7.2479   -2.4181   -0.5560 H   0  0
   -4.1023   -0.7702   -1.9167 H   0  0
   -5.0944   -2.1661   -2.3782 H   0  0
   -9.2191    0.9275    2.1196 H   0  0
  -12.4426    1.2300   -0.7307 H   0  0
   -3.5107   -4.6076   -0.2008 H   0  0
   -3.9196   -4.0713   -1.8137 H   0  0
  -10.8158    0.1858    3.8495 H   0  0
  -14.0425    0.5036    1.0203 H   0  0
  -13.2353   -0.0211    3.3066 H   0  0
   -0.5032   -8.9192    2.1994 H   0  0
   -1.4595   -8.5903    0.7360 H   0  0
   -1.4613   -7.4437    2.0667 H   0  0
    1.6457   -9.2113    0.9046 H   0  0
    2.1165   -8.0012   -0.3091 H   0  0
    0.7073   -9.0089   -0.5913 H   0  0
    1.6651   -7.3681    2.6320 H   0  0
    0.6152   -5.9582    2.4813 H   0  0
    2.0143   -6.1047    1.4295 H   0  0
  1 19  1  0
  1 23  1  0
  2 17  1  0
  2 18  1  0
  3  9  2  0
  4 17  2  0
  5 22  2  0
  6 22  1  0
  6 30  1  0
  7 14  1  0
  7 17  1  0
  7 31  1  0
  8  9  1  0
  8 12  2  0
  8 13  1  0
  9 10  1  0
 10 20  2  0
 10 21  1  0
 11 15  2  0
 11 16  1  0
 11 19  1  0
 12 15  1  0
 12 32  1  0
 13 16  2  0
 13 33  1  0
 14 22  1  0
 14 23  1  0
 14 34  1  0
 15 35  1  0
 16 36  1  0
 18 27  1  0
 18 28  1  0
 18 29  1  0
 19 37  1  0
 19 38  1  0
 20 24  1  0
 20 39  1  0
 21 25  2  0
 21 40  1  0
 23 41  1  0
 23 42  1  0
 24 26  2  0
 24 43  1  0
 25 26  1  0
 25 44  1  0
 26 45  1  0
 27 46  1  0
 27 47  1  0
 27 48  1  0
 28 49  1  0
 28 50  1  0
 28 51  1  0
 29 52  1  0
 29 53  1  0
 29 54  1  0
M  END
> <Name>
CHEMBL1967191

> <Clean Energy>
14.2903

> <chembl_id>
CHEMBL1967191

> <chembl_pref_name>
None

> <efficacy>
0.15

> <Forcefield>
MMFF

> <ForcefieldBase>
MMFF

> <ForcefieldFFML>
<?xml version="1.0" encoding="UTF-8"?>
<!DOCTYPE ffml SYSTEM "Ffml.dtd">
<ffml version="1.0">
<forcefield name="MMFF" derivedFrom="MMFF" base="MMFF">
<atomTypes>
<atomType
name="S100"
element="S"
mass="32.066"
annotation=""/>
<atomType
name="O101"
element="O"
mass="16"
annotation=""/>
<atomType
name="N102"
element="N"
mass="14.007"
annotation=""/>
<atomType
name="C103"
element="C"
mass="12.011"
annotation=""/>
<atomType
name="H104"
element="H"
mass="1.008"
annotation=""/>
</atomTypes>
<parameters>
</parameters>
</forcefield>
</ffml>

> <Initial Potential Energy>
178.61992

> <Initial RMS Gradient>
32.8149

> <Minimization Criteria>
CONJUG> Minimization exiting with gradient tolerance ( 0.0100000) satisfied.

> <CHARMm Energy>
32.41785

> <Potential Energy>
32.41785

> <RMS Gradient>
0.00965

> <Bond Energy>
6.55301

> <Angle Energy>
13.13697

> <STRBend>
1.34467

> <Dihedral Energy>
13.70265

> <OOPLane>
0.10688

> <Van der Waals Energy>
50.36002

> <Electrostatic Energy>
-52.78635

> <Hydrogen Bond Energy>
0

> <Solvation Free Energy>
0

> <HasGasteigerCharges>
true

> <REMARK99>
REMARK  99  MacroMolecule created from Mol2 file
REMARK  99  CHEMBL1967191
REMARK  99  PROTEIN
REMARK  99  GASTEIGER
REMARK  99
REMARK  99

$$$$
CHEMBL560830
  SciTegic05292516403D

 62 66  0  0  0  0            999 V2000
   12.1690   -1.8547    2.3949 C   0  0
   12.9032   -3.1353    2.9395 C   0  0
   14.1124   -2.7691    2.0694 C   0  0
   13.1663   -1.9405    1.1895 C   0  0
    9.8455   -5.2133   -3.1523 C   0  0
    9.9699   -6.4553   -2.5369 C   0  0
    9.1507   -6.8047   -1.4529 C   0  0
    8.9016   -4.2941   -2.6792 C   0  0
    8.0992   -4.6433   -1.5789 C   0  0
    8.1938   -5.8905   -0.9640 C   0  0
    7.2571   -5.9075    0.1190 C   0  0
    6.6151   -4.6746    0.1363 C   0  0
    7.1895   -3.8959   -0.8494 N   0  0
    5.5559   -4.1711    1.0589 C   0  0
    7.0323   -2.4444   -0.9892 C   0  0
    8.2365   -1.6899   -0.4622 C   0  0
    8.9841   -2.1658    0.6271 C   0  0
   10.1276   -1.5058    1.0698 C   0  0
   10.5035   -0.3067    0.4797 C   0  0
    9.7462    0.2066   -0.5772 C   0  0
    8.6229   -0.4796   -1.0483 C   0  0
   10.7661   -2.1354    2.1082 O   0  0
   12.3115   -0.6001    3.3684 C   0  0
   13.3476   -0.0409    3.7127 O   0  0
   11.1112   -0.1516    3.8528 O   0  0
    7.0335   -6.9705    1.0924 C   0  0
    7.0273   -6.7557    2.3018 O   0  0
    6.7859   -8.3522    0.6046 C   0  0
    7.1418   -9.4324    1.4249 C   0  0
    6.8546  -10.7412    1.0267 C   0  0
    6.2049  -10.9709   -0.1864 C   0  0
    5.8606   -9.9002   -1.0122 C   0  0
    6.1451   -8.5903   -0.6181 C   0  0
    5.8032  -12.5808   -0.6503 Cl  0  0
   10.5744   -4.7567   -4.2157 O   0  0
   11.6449   -5.5618   -4.6731 C   0  0
   12.6028   -5.6855   -3.7315 F   0  0
   12.1931   -4.9855   -5.7707 F   0  0
   11.2136   -6.7897   -5.0483 F   0  0
   13.0995   -3.1562    4.0154 H   0  0
   12.4197   -4.0778    2.6561 H   0  0
   14.8672   -2.1711    2.5920 H   0  0
   14.6088   -3.6063    1.5720 H   0  0
   13.5849   -0.9914    0.8423 H   0  0
   12.7829   -2.4919    0.3229 H   0  0
   10.6990   -7.1931   -2.8593 H   0  0
    9.2793   -7.7770   -0.9840 H   0  0
    8.8231   -3.3137   -3.1399 H   0  0
    5.9683   -3.4271    1.7475 H   0  0
    5.1231   -4.9798    1.6548 H   0  0
    4.7359   -3.7151    0.4947 H   0  0
    6.8759   -2.2502   -2.0567 H   0  0
    6.1336   -2.1245   -0.4548 H   0  0
    8.7078   -3.0920    1.1289 H   0  0
   11.3681    0.2546    0.8158 H   0  0
   10.0379    1.1453   -1.0426 H   0  0
    8.0607   -0.0603   -1.8803 H   0  0
   10.3979   -0.7099    3.4661 H   0  0
    7.6362   -9.2493    2.3787 H   0  0
    7.1251  -11.5785    1.6651 H   0  0
    5.3522  -10.0763   -1.9569 H   0  0
    5.8346   -7.7695   -1.2610 H   0  0
  1  2  1  0
  1 23  1  0
  2  3  1  0
  2 40  1  0
  2 41  1  0
  3  4  1  0
  3 42  1  0
  3 43  1  0
  4  1  1  0
  4 44  1  0
  4 45  1  0
  5  6  2  0
  5 35  1  0
  6  7  1  0
  6 46  1  0
  7 10  2  0
  7 47  1  0
  8  5  1  0
  8 48  1  0
  9  8  2  0
  9 10  1  0
 10 11  1  0
 11 12  2  0
 11 26  1  0
 12 13  1  0
 12 14  1  0
 13  9  1  0
 13 15  1  0
 14 49  1  0
 14 50  1  0
 14 51  1  0
 15 16  1  0
 15 52  1  0
 15 53  1  0
 16 17  2  0
 17 18  1  0
 17 54  1  0
 18 19  2  0
 18 22  1  0
 19 20  1  0
 19 55  1  0
 20 21  2  0
 20 56  1  0
 21 16  1  0
 21 57  1  0
 22  1  1  0
 23 24  2  0
 23 25  1  0
 25 58  1  0
 26 27  2  0
 26 28  1  0
 28 29  2  0
 29 30  1  0
 29 59  1  0
 30 31  2  0
 30 60  1  0
 31 32  1  0
 31 34  1  0
 32 33  2  0
 32 61  1  0
 33 28  1  0
 33 62  1  0
 35 36  1  0
 36 37  1  0
 36 38  1  0
 36 39  1  0
M  END
> <Name>
CHEMBL560830

> <Clean Energy>
84.671501

> <chembl_id>
CHEMBL560830

> <chembl_pref_name>
None

> <efficacy>
0.35

> <Forcefield>
MMFF

> <ForcefieldBase>
MMFF

> <ForcefieldFFML>
<?xml version="1.0" encoding="UTF-8"?>
<!DOCTYPE ffml SYSTEM "Ffml.dtd">
<ffml version="1.0">
<forcefield name="MMFF" derivedFrom="MMFF" base="MMFF">
<atomTypes>
<atomType
name="C100"
element="C"
mass="12.011"
annotation=""/>
<atomType
name="N101"
element="N"
mass="14.007"
annotation=""/>
<atomType
name="O102"
element="O"
mass="16"
annotation=""/>
<atomType
name="Cl103"
element="Cl"
mass="35.453"
annotation=""/>
<atomType
name="F104"
element="F"
mass="18.998"
annotation=""/>
<atomType
name="H105"
element="H"
mass="1.008"
annotation=""/>
</atomTypes>
<parameters>
</parameters>
</forcefield>
</ffml>

> <Initial Potential Energy>
586.32382

> <Initial RMS Gradient>
200.45091

> <Minimization Criteria>
STEEPD> Minimization exiting with gradient tolerance ( 3.0000000) satisfied.

> <CHARMm Energy>
121.7678

> <Potential Energy>
121.7678

> <RMS Gradient>
0.05747

> <Bond Energy>
8.3926

> <Angle Energy>
21.76633

> <STRBend>
-1.75241

> <Dihedral Energy>
14.78165

> <OOPLane>
0.14699

> <Van der Waals Energy>
66.19968

> <Electrostatic Energy>
12.23297

> <Hydrogen Bond Energy>
0

> <Solvation Free Energy>
0

> <HasGasteigerCharges>
true

> <REMARK99>
REMARK  99  MacroMolecule created from Mol2 file
REMARK  99  CHEMBL560830
REMARK  99  PROTEIN
REMARK  99  GASTEIGER
REMARK  99
REMARK  99

$$$$
CHEMBL461378
  SciTegic05292516403D

 52 55  0  0  0  0            999 V2000
   -7.0909   -6.5756   -0.1064 C   0  0
   -7.4601   -7.9015   -0.2589 C   0  0
   -6.5098   -8.8947   -0.0298 C   0  0
   -5.8657   -6.1304    0.2471 N   0  0
   -4.9690   -7.1228    0.4514 C   0  0
   -5.2212   -8.4881    0.3493 C   0  0
   -4.0167   -9.1440    0.6766 C   0  0
   -3.0766   -8.2037    1.0604 C   0  0
   -3.6323   -6.9625    0.7827 N   0  0
   -1.7246   -8.4136    1.6438 C   0  0
   -2.9727   -5.6556    0.8692 C   0  0
   -1.6277   -5.5853    0.1668 C   0  0
   -0.4627   -5.3507    0.9316 C   0  0
    0.8129   -5.3007    0.3488 C   0  0
    0.9397   -5.4839   -1.0226 C   0  0
   -0.2044   -5.6895   -1.8023 C   0  0
   -1.4772   -5.7359   -1.2184 C   0  0
   -3.8360  -10.4836    0.6989 O   0  0
   -2.8366  -11.0441   -0.0639 C   0  0
   -2.1545  -12.1287    0.4870 C   0  0
   -1.1416  -12.7548   -0.2407 C   0  0
   -0.8229  -12.2970   -1.5191 C   0  0
   -1.5082  -11.2189   -2.0772 C   0  0
   -2.5232  -10.5932   -1.3507 C   0  0
    1.8449   -5.1493    1.2338 O   0  0
    3.1212   -4.6757    0.7651 C   0  0  2  0  0  0
    4.1367   -5.8270    0.6367 C   0  0
    3.6329   -3.6896    1.8096 C   0  0
    3.5605   -7.0435    0.8327 O   0  0
    5.3270   -5.6927    0.3835 O   0  0
    0.4226  -13.0717   -2.4166 Cl  0  0
   -8.0220   -5.6373   -0.3309 F   0  0
   -2.8230   -5.9816   -2.2701 Cl  0  0
   -8.4751   -8.1500   -0.5475 H   0  0
   -6.7587   -9.9465   -0.1314 H   0  0
   -1.4871   -7.6495    2.3893 H   0  0
   -0.9582   -8.4095    0.8633 H   0  0
   -1.6712   -9.3773    2.1611 H   0  0
   -3.6357   -4.8916    0.4488 H   0  0
   -2.8747   -5.4443    1.9408 H   0  0
   -0.5447   -5.2208    2.0108 H   0  0
    1.9041   -5.4934   -1.5220 H   0  0
   -0.0950   -5.8244   -2.8772 H   0  0
   -2.4022  -12.4754    1.4857 H   0  0
   -0.6087  -13.5952    0.1943 H   0  0
   -1.2629  -10.8651   -3.0747 H   0  0
   -3.0641   -9.7623   -1.7962 H   0  0
    3.0401   -4.1620   -0.1985 H   0  0
    4.5938   -3.2566    1.5139 H   0  0
    3.7661   -4.1813    2.7805 H   0  0
    2.9136   -2.8775    1.9600 H   0  0
    2.6170   -6.9458    1.0856 H   0  0
  1  2  2  0
  1 32  1  0
  2  3  1  0
  2 34  1  0
  3  6  2  0
  3 35  1  0
  4  1  1  0
  5  4  2  0
  5  6  1  0
  6  7  1  0
  7  8  2  0
  7 18  1  0
  8  9  1  0
  8 10  1  0
  9  5  1  0
  9 11  1  0
 10 36  1  0
 10 37  1  0
 10 38  1  0
 11 12  1  0
 11 39  1  0
 11 40  1  0
 12 13  2  0
 13 14  1  0
 13 41  1  0
 14 15  2  0
 14 25  1  0
 15 16  1  0
 15 42  1  0
 16 17  2  0
 16 43  1  0
 17 12  1  0
 17 33  1  0
 18 19  1  0
 19 20  2  0
 20 21  1  0
 20 44  1  0
 21 22  2  0
 21 45  1  0
 22 23  1  0
 22 31  1  0
 23 24  2  0
 23 46  1  0
 24 19  1  0
 24 47  1  0
 25 26  1  0
 26 27  1  0
 26 28  1  0
 26 48  1  0
 27 29  1  0
 27 30  2  0
 28 49  1  0
 28 50  1  0
 28 51  1  0
 29 52  1  0
M  END
> <Name>
CHEMBL461378

> <Clean Energy>
93.1959

> <chembl_id>
CHEMBL461378

> <chembl_pref_name>
None

> <efficacy>
0.37

> <Forcefield>
MMFF

> <ForcefieldBase>
MMFF

> <ForcefieldFFML>
<?xml version="1.0" encoding="UTF-8"?>
<!DOCTYPE ffml SYSTEM "Ffml.dtd">
<ffml version="1.0">
<forcefield name="MMFF" derivedFrom="MMFF" base="MMFF">
<atomTypes>
<atomType
name="C100"
element="C"
mass="12.011"
annotation=""/>
<atomType
name="N101"
element="N"
mass="14.007"
annotation=""/>
<atomType
name="O102"
element="O"
mass="16"
annotation=""/>
<atomType
name="Cl103"
element="Cl"
mass="35.453"
annotation=""/>
<atomType
name="F104"
element="F"
mass="18.998"
annotation=""/>
<atomType
name="H105"
element="H"
mass="1.008"
annotation=""/>
</atomTypes>
<parameters>
</parameters>
</forcefield>
</ffml>

> <Initial Potential Energy>
217.52144

> <Initial RMS Gradient>
34.83396

> <Minimization Criteria>
STEEPD> Minimization exiting with gradient tolerance ( 3.0000000) satisfied.

> <CHARMm Energy>
72.98772

> <Potential Energy>
72.98772

> <RMS Gradient>
0.11204

> <Bond Energy>
6.01505

> <Angle Energy>
14.74404

> <STRBend>
1.10798

> <Dihedral Energy>
8.18303

> <OOPLane>
0.09253

> <Van der Waals Energy>
57.98654

> <Electrostatic Energy>
-15.14145

> <Hydrogen Bond Energy>
0

> <Solvation Free Energy>
0

> <HasGasteigerCharges>
true

> <REMARK99>
REMARK  99  MacroMolecule created from Mol2 file
REMARK  99  CHEMBL461378
REMARK  99  PROTEIN
REMARK  99  GASTEIGER
REMARK  99
REMARK  99

$$$$
CHEMBL361617
  SciTegic05292516403D

 44 46  0  0  0  0            999 V2000
   10.8570   -2.6143    0.1635 C   0  0
   10.3448   -3.9406   -0.2595 C   0  0
    9.9840   -1.6839    0.5959 C   0  0
    8.1133   -3.1847    0.3118 C   0  0
    8.5733   -1.9866    0.6918 C   0  0
    8.9988   -4.1693   -0.1783 O   0  0
   12.2680   -2.4003    0.0852 C   0  0
   13.4075   -2.1803    0.0145 N   0  0
    6.6955   -3.6013    0.3862 C   0  0
   11.1059   -4.8124   -0.6691 O   0  0
   10.4460   -0.0943    1.1494 S   0  0
    5.6399   -2.6890    0.2266 C   0  0
    6.3663   -4.9481    0.6018 C   0  0
    3.9954   -4.4569    0.4570 C   0  0
   -0.3815   -4.6391   -2.0456 S   0  0
    5.0311   -5.3687    0.6467 C   0  0
    4.3017   -3.1097    0.2735 C   0  0
   -1.4789   -3.7746   -0.9340 C   0  0
    2.7288   -4.9766    0.4891 O   0  0
   10.7589    0.7436   -0.4255 C   0  0
    0.8081   -5.3619   -0.8680 C   0  0
    1.7737   -4.3085   -0.3460 C   0  0
   -1.7372   -2.4177   -1.1559 C   0  0
   -2.1206   -4.4271    0.1237 C   0  0
   -2.9806   -3.7239    0.9698 C   0  0
   -2.5985   -1.7142   -0.3111 C   0  0
   -3.2129   -2.3666    0.7559 C   0  0
    7.9057   -1.2340    1.1038 H   0  0
    5.8357   -1.6340    0.0493 H   0  0
    7.1472   -5.6941    0.7387 H   0  0
    4.8035   -6.4189    0.8115 H   0  0
    3.5184   -2.3652    0.1642 H   0  0
   10.9913    1.7943   -0.2323 H   0  0
    9.8730    0.6960   -1.0651 H   0  0
   11.6057    0.2931   -0.9488 H   0  0
    0.3053   -5.8790   -0.0449 H   0  0
    1.3727   -6.1351   -1.4018 H   0  0
    2.2602   -3.8219   -1.2014 H   0  0
    1.2568   -3.5551    0.2586 H   0  0
   -1.2671   -1.8970   -1.9872 H   0  0
   -1.9684   -5.4895    0.2939 H   0  0
   -3.4820   -4.2366    1.7873 H   0  0
   -2.7977   -0.6605   -0.4910 H   0  0
   -3.8874   -1.8206    1.4107 H   0  0
  2  1  1  0
  3  1  2  0
  4  5  2  0
  5  3  1  0
  5 28  1  0
  6  2  1  0
  6  4  1  0
  7  1  1  0
  8  7  3  0
  9  4  1  0
 10  2  2  0
 11  3  1  0
 12  9  2  0
 12 29  1  0
 13  9  1  0
 13 30  1  0
 14 16  1  0
 15 21  1  0
 16 13  2  0
 16 31  1  0
 17 12  1  0
 17 14  2  0
 17 32  1  0
 18 15  1  0
 19 14  1  0
 20 11  1  0
 20 33  1  0
 20 34  1  0
 20 35  1  0
 21 22  1  0
 21 36  1  0
 21 37  1  0
 22 19  1  0
 22 38  1  0
 22 39  1  0
 23 18  2  0
 23 40  1  0
 24 18  1  0
 24 41  1  0
 25 24  2  0
 25 42  1  0
 26 23  1  0
 26 27  2  0
 26 43  1  0
 27 25  1  0
 27 44  1  0
M  END
> <Name>
CHEMBL361617

> <Clean Energy>
31.5755

> <chembl_id>
CHEMBL361617

> <chembl_pref_name>
None

> <efficacy>
0.14

> <Forcefield>
MMFF

> <ForcefieldBase>
MMFF

> <ForcefieldFFML>
<?xml version="1.0" encoding="UTF-8"?>
<!DOCTYPE ffml SYSTEM "Ffml.dtd">
<ffml version="1.0">
<forcefield name="MMFF" derivedFrom="MMFF" base="MMFF">
<atomTypes>
<atomType
name="C100"
element="C"
mass="12.011"
annotation=""/>
<atomType
name="O101"
element="O"
mass="16"
annotation=""/>
<atomType
name="N102"
element="N"
mass="14.007"
annotation=""/>
<atomType
name="S103"
element="S"
mass="32.066"
annotation=""/>
<atomType
name="H104"
element="H"
mass="1.008"
annotation=""/>
</atomTypes>
<parameters>
</parameters>
</forcefield>
</ffml>

> <Initial Potential Energy>
162.54605

> <Initial RMS Gradient>
27.61504

> <Minimization Criteria>
STEEPD> Minimization exiting with gradient tolerance ( 3.0000000) satisfied.

> <CHARMm Energy>
49.51896

> <Potential Energy>
49.51896

> <RMS Gradient>
0.12782

> <Bond Energy>
4.65958

> <Angle Energy>
18.48492

> <STRBend>
-0.1418

> <Dihedral Energy>
9.29461

> <OOPLane>
0.02685

> <Van der Waals Energy>
52.30689

> <Electrostatic Energy>
-35.1121

> <Hydrogen Bond Energy>
0

> <Solvation Free Energy>
0

> <HasGasteigerCharges>
true

> <REMARK99>
REMARK  99  MacroMolecule created from Mol2 file
REMARK  99  CHEMBL361617
REMARK  99  PROTEIN
REMARK  99  GASTEIGER
REMARK  99
REMARK  99

$$$$
CHEMBL560160
  SciTegic05292516403D

 64 67  0  0  0  0            999 V2000
   -7.8552  -12.4518    0.0664 C   0  0
   -9.0193  -12.8773   -0.5803 C   0  0
   -9.2092  -14.2307   -0.8387 C   0  0
   -8.2378  -15.1745   -0.4536 C   0  0
   -7.0581  -14.7583    0.2033 C   0  0
   -6.8955  -13.4001    0.4629 C   0  0
   -5.9163  -15.4371    0.7390 C   0  0
   -5.1129  -14.4861    1.3568 C   0  0
   -5.7060  -13.2519    1.1554 N   0  0
   -3.8688  -14.6886    2.1544 C   0  0
   -5.7306  -16.8778    0.8087 C   0  0
   -4.7049  -17.5875   -0.0124 C   0  0
   -6.4528  -17.5497    1.5408 O   0  0
   -4.7989  -18.9926   -0.0924 C   0  0
   -3.8624  -19.7304   -0.8208 C   0  0
   -2.8177  -19.0746   -1.4674 C   0  0
   -2.7155  -17.6840   -1.4045 C   0  0
   -3.6644  -16.9373   -0.6882 C   0  0
   -1.6687  -19.9849   -2.3661 Cl  0  0
   -5.2269  -11.9710    1.6692 C   0  0
   -4.2301  -11.3489    0.7301 C   0  0
   -3.6898  -10.1403   -1.3014 C   0  0
   -4.6351  -10.6768   -0.4293 C   0  0
   -2.8625  -11.4632    0.9953 C   0  0
   -1.9140  -10.9254    0.1270 C   0  0
   -2.3283  -10.2652   -1.0257 C   0  0
   -0.6291  -11.1433    0.5239 O   0  0
    0.4086  -10.3077   -0.0223 C   0  0  2  0  0  0
    1.7086  -11.0500    0.2868 C   0  0
    1.5349  -12.3273    0.7113 O   0  0
    2.8238  -10.5639    0.1527 O   0  0
    0.3953   -8.9328    0.6616 C   0  0
   -9.8633  -11.8518   -0.9042 O   0  0
  -11.2045  -12.1816   -1.2364 C   0  0
  -11.9307  -11.0445   -1.3445 F   0  0
  -11.2619  -12.8303   -2.4217 F   0  0
  -11.7712  -12.9539   -0.2840 F   0  0
    1.1136   -7.8618   -0.1630 C   0  0
    1.0708   -6.5069    0.5271 C   0  0
   -7.7112  -11.3954    0.2710 H   0  0
  -10.1037  -14.6043   -1.3346 H   0  0
   -8.4131  -16.2319   -0.6445 H   0  0
   -3.8826  -14.1081    3.0809 H   0  0
   -2.9900  -14.4046    1.5689 H   0  0
   -3.7500  -15.7385    2.4413 H   0  0
   -5.6133  -19.5252    0.4061 H   0  0
   -3.9526  -20.8154   -0.8728 H   0  0
   -1.8977  -17.1783   -1.9141 H   0  0
   -3.5669  -15.8556   -0.6648 H   0  0
   -6.0801  -11.3027    1.8251 H   0  0
   -4.7984  -12.1378    2.6629 H   0  0
   -4.0147   -9.6276   -2.2043 H   0  0
   -5.6884  -10.5693   -0.6739 H   0  0
   -2.5231  -11.9738    1.8942 H   0  0
   -1.6342   -9.8398   -1.7402 H   0  0
    0.3382  -10.2577   -1.1137 H   0  0
    0.5710  -12.5048    0.7863 H   0  0
   -0.6364   -8.6053    0.8381 H   0  0
    0.8558   -9.0058    1.6557 H   0  0
    2.1589   -8.1392   -0.3320 H   0  0
    0.6381   -7.7751   -1.1468 H   0  0
    1.5789   -5.7544   -0.0844 H   0  0
    1.5693   -6.5472    1.5008 H   0  0
    0.0385   -6.1779    0.6831 H   0  0
  1  2  2  0
  1  6  1  0
  1 40  1  0
  2  3  1  0
  2 33  1  0
  3  4  2  0
  3 41  1  0
  4  5  1  0
  4 42  1  0
  5  7  1  0
  6  5  2  0
  6  9  1  0
  7  8  2  0
  7 11  1  0
  8  9  1  0
  8 10  1  0
  9 20  1  0
 10 43  1  0
 10 44  1  0
 10 45  1  0
 11 12  1  0
 11 13  2  0
 12 14  2  0
 12 18  1  0
 14 15  1  0
 14 46  1  0
 15 16  2  0
 15 47  1  0
 16 17  1  0
 16 19  1  0
 17 18  2  0
 17 48  1  0
 18 49  1  0
 20 21  1  0
 20 50  1  0
 20 51  1  0
 21 24  1  0
 22 23  1  0
 22 26  2  0
 22 52  1  0
 23 21  2  0
 23 53  1  0
 24 25  2  0
 24 54  1  0
 25 26  1  0
 25 27  1  0
 26 55  1  0
 27 28  1  0
 28 29  1  0
 28 32  1  0
 28 56  1  0
 29 30  1  0
 29 31  2  0
 30 57  1  0
 32 38  1  0
 32 58  1  0
 32 59  1  0
 33 34  1  0
 34 35  1  0
 34 36  1  0
 34 37  1  0
 38 39  1  0
 38 60  1  0
 38 61  1  0
 39 62  1  0
 39 63  1  0
 39 64  1  0
M  END
> <Name>
CHEMBL560160

> <Clean Energy>
85.473602

> <chembl_id>
CHEMBL560160

> <chembl_pref_name>
None

> <efficacy>
0.27

> <Forcefield>
MMFF

> <ForcefieldBase>
MMFF

> <ForcefieldFFML>
<?xml version="1.0" encoding="UTF-8"?>
<!DOCTYPE ffml SYSTEM "Ffml.dtd">
<ffml version="1.0">
<forcefield name="MMFF" derivedFrom="MMFF" base="MMFF">
<atomTypes>
<atomType
name="C100"
element="C"
mass="12.011"
annotation=""/>
<atomType
name="N101"
element="N"
mass="14.007"
annotation=""/>
<atomType
name="O102"
element="O"
mass="16"
annotation=""/>
<atomType
name="Cl103"
element="Cl"
mass="35.453"
annotation=""/>
<atomType
name="F104"
element="F"
mass="18.998"
annotation=""/>
<atomType
name="H105"
element="H"
mass="1.008"
annotation=""/>
</atomTypes>
<parameters>
</parameters>
</forcefield>
</ffml>

> <Initial Potential Energy>
485.36448

> <Initial RMS Gradient>
100.0781

> <Minimization Criteria>
STEEPD> Minimization exiting with gradient tolerance ( 3.0000000) satisfied.

> <CHARMm Energy>
112.46701

> <Potential Energy>
112.46701

> <RMS Gradient>
0.06376

> <Bond Energy>
7.29353

> <Angle Energy>
24.81959

> <STRBend>
-0.1805

> <Dihedral Energy>
5.78291

> <OOPLane>
0.22725

> <Van der Waals Energy>
68.18662

> <Electrostatic Energy>
6.3376

> <Hydrogen Bond Energy>
0

> <Solvation Free Energy>
0

> <HasGasteigerCharges>
true

> <REMARK99>
REMARK  99  MacroMolecule created from Mol2 file
REMARK  99  CHEMBL560160
REMARK  99  PROTEIN
REMARK  99  GASTEIGER
REMARK  99
REMARK  99

$$$$
CHEMBL512563
  SciTegic05292516403D

 41 42  0  0  0  0            999 V2000
   -0.5182    0.1542   -0.3583 C   0  0
   -0.3884   -1.0178   -1.0578 C   0  0
    0.8782   -1.3068   -1.4937 C   0  0
    1.9574   -0.5386   -1.3030 N   0  0
    1.7338    0.5904   -0.6362 C   0  0
    0.5380    0.9625   -0.1515 N   0  0
    3.0583    1.7503   -0.4426 S   0  0
    4.5058    0.7042    0.1071 C   0  0
    5.6370    1.6697    0.5553 C   0  0
    6.7334    1.0481    1.0724 O   0  0
    5.6386    2.8890    0.4551 O   0  0
   -1.7314    0.6302    0.1329 N   0  0
   -3.0283    0.1008    0.2653 C   0  0
   -4.1535    0.9519    0.0967 C   0  0
   -5.4608    0.4297    0.2467 C   0  0
   -5.6306   -0.9378    0.5018 C   0  0
   -4.5339   -1.7797    0.6388 C   0  0
   -3.2452   -1.2610    0.5253 C   0  0
   -3.9462    2.4189   -0.2050 C   0  0
   -6.6910    1.2897    0.1152 C   0  0
    1.1935   -2.7501   -2.3688 Cl  0  0
    4.0911   -0.1721    1.2976 C   0  0
    5.0460   -0.1216   -1.0681 C   0  0
   -1.2221   -1.6632   -1.2872 H   0  0
    6.6991    0.0752    1.1002 H   0  0
   -1.6082    1.5618    0.5155 H   0  0
   -6.6303   -1.3573    0.6033 H   0  0
   -4.6939   -2.8350    0.8494 H   0  0
   -2.4079   -1.9322    0.6917 H   0  0
   -4.8222    2.8760   -0.6731 H   0  0
   -3.1252    2.5631   -0.9153 H   0  0
   -3.7232    2.9599    0.7199 H   0  0
   -7.5941    0.7487    0.4179 H   0  0
   -6.8223    1.6042   -0.9248 H   0  0
   -6.6146    2.1701    0.7614 H   0  0
    4.9244   -0.7823    1.6623 H   0  0
    3.2942   -0.8777    1.0445 H   0  0
    3.7555    0.4387    2.1441 H   0  0
    5.9716   -0.6429   -0.7983 H   0  0
    5.2876    0.5152   -1.9274 H   0  0
    4.3530   -0.8981   -1.3985 H   0  0
  1  2  2  0
  1 12  1  0
  2  3  1  0
  2 24  1  0
  3  4  2  0
  3 21  1  0
  4  5  1  0
  5  6  2  0
  5  7  1  0
  6  1  1  0
  7  8  1  0
  8  9  1  0
  8 22  1  0
  8 23  1  0
  9 10  1  0
  9 11  2  0
 10 25  1  0
 12 13  1  0
 12 26  1  0
 13 14  2  0
 14 15  1  0
 14 19  1  0
 15 16  2  0
 15 20  1  0
 16 17  1  0
 16 27  1  0
 17 18  2  0
 17 28  1  0
 18 13  1  0
 18 29  1  0
 19 30  1  0
 19 31  1  0
 19 32  1  0
 20 33  1  0
 20 34  1  0
 20 35  1  0
 22 36  1  0
 22 37  1  0
 22 38  1  0
 23 39  1  0
 23 40  1  0
 23 41  1  0
M  END
> <Name>
CHEMBL512563

> <Clean Energy>
15.2847

> <chembl_id>
CHEMBL512563

> <chembl_pref_name>
None

> <efficacy>
0.28

> <Forcefield>
MMFF

> <ForcefieldBase>
MMFF

> <ForcefieldFFML>
<?xml version="1.0" encoding="UTF-8"?>
<!DOCTYPE ffml SYSTEM "Ffml.dtd">
<ffml version="1.0">
<forcefield name="MMFF" derivedFrom="MMFF" base="MMFF">
<atomTypes>
<atomType
name="C100"
element="C"
mass="12.011"
annotation=""/>
<atomType
name="N101"
element="N"
mass="14.007"
annotation=""/>
<atomType
name="S102"
element="S"
mass="32.066"
annotation=""/>
<atomType
name="O103"
element="O"
mass="16"
annotation=""/>
<atomType
name="Cl104"
element="Cl"
mass="35.453"
annotation=""/>
<atomType
name="H105"
element="H"
mass="1.008"
annotation=""/>
</atomTypes>
<parameters>
</parameters>
</forcefield>
</ffml>

> <Initial Potential Energy>
19.3974

> <Initial RMS Gradient>
35.53191

> <Minimization Criteria>
CONJUG> Minimization exiting with gradient tolerance ( 0.0100000) satisfied.

> <CHARMm Energy>
-61.77816

> <Potential Energy>
-61.77816

> <RMS Gradient>
0.00952

> <Bond Energy>
5.13727

> <Angle Energy>
13.67316

> <STRBend>
0.77821

> <Dihedral Energy>
10.06233

> <OOPLane>
0.1046

> <Van der Waals Energy>
45.87055

> <Electrostatic Energy>
-137.40428

> <Hydrogen Bond Energy>
0

> <Solvation Free Energy>
0

> <HasGasteigerCharges>
true

> <REMARK99>
REMARK  99  MacroMolecule created from Mol2 file
REMARK  99  CHEMBL512563
REMARK  99  PROTEIN
REMARK  99  GASTEIGER
REMARK  99
REMARK  99

$$$$
CHEMBL2204691
  SciTegic05292516403D

 56 58  0  0  0  0            999 V2000
   15.8951  -26.5024    0.8003 C   0  0
   15.2814  -27.2577   -0.4101 C   0  0
   16.2703  -27.0954   -1.5806 C   0  0
   15.4322  -25.4834    1.2943 O   0  0
   17.0444  -27.0420    1.2898 O   0  0
   14.0754  -26.6424   -0.9076 O   0  0
   12.8814  -27.0661   -0.3996 C   0  0
   12.5032  -26.8586    0.9223 C   0  0
   11.2559  -27.3107    1.3683 C   0  0
   10.3724  -27.9621    0.4947 C   0  0
   10.7456  -28.1210   -0.8454 C   0  0
   11.9896  -27.6644   -1.2907 C   0  0
    9.0531  -28.4926    1.0000 C   0  0
    7.9157  -27.4717    1.0290 C   0  0
    7.3553  -27.1474   -0.3572 C   0  0
    6.1313  -26.4098   -0.2500 O   0  0
    4.9595  -27.0862   -0.0493 C   0  0
    3.8452  -26.2668    0.1643 C   0  0
    2.5807  -26.8162    0.4036 C   0  0
    2.4192  -28.2016    0.4051 C   0  0
    3.5289  -29.0244    0.2037 C   0  0
    4.7958  -28.4704   -0.0251 C   0  0
    1.2288  -28.8374    0.6793 O   0  0
    0.0638  -28.2721    0.2169 C   0  0
   -0.1132  -27.8991   -1.1176 C   0  0
   -1.3381  -27.3756   -1.5335 C   0  0
   -2.3891  -27.2489   -0.6228 C   0  0
   -2.2182  -27.6458    0.7042 C   0  0
   -0.9922  -28.1631    1.1229 C   0  0
   15.1186  -28.7613   -0.1167 C   0  0
   15.8693  -27.5501   -2.4941 H   0  0
   17.2456  -27.5475   -1.3734 H   0  0
   16.4353  -26.0347   -1.8052 H   0  0
   17.3462  -27.8464    0.8336 H   0  0
   13.1539  -26.3343    1.6160 H   0  0
   10.9840  -27.1527    2.4102 H   0  0
   10.0752  -28.6062   -1.5512 H   0  0
   12.2713  -27.7888   -2.3330 H   0  0
    8.7574  -29.3696    0.4108 H   0  0
    9.2089  -28.8728    2.0185 H   0  0
    7.1128  -27.8747    1.6581 H   0  0
    8.2329  -26.5414    1.5173 H   0  0
    8.0610  -26.4944   -0.8837 H   0  0
    7.2370  -28.0313   -0.9929 H   0  0
    3.9739  -25.1862    0.1614 H   0  0
    1.7410  -26.1544    0.5969 H   0  0
    3.4138  -30.1051    0.2270 H   0  0
    5.6262  -29.1511   -0.1703 H   0  0
    0.6940  -28.0187   -1.8351 H   0  0
   -1.4813  -27.0757   -2.5688 H   0  0
   -3.3479  -26.8518   -0.9501 H   0  0
   -3.0432  -27.5591    1.4080 H   0  0
   -0.8595  -28.4807    2.1531 H   0  0
   14.5854  -29.2693   -0.9281 H   0  0
   14.5526  -28.9277    0.8064 H   0  0
   16.0816  -29.2665    0.0093 H   0  0
  1  2  1  0
  1  4  2  0
  1  5  1  0
  2  3  1  0
  2  6  1  0
  2 30  1  0
  3 31  1  0
  3 32  1  0
  3 33  1  0
  5 34  1  0
  6  7  1  0
  7  8  1  0
  7 12  2  0
  8  9  2  0
  8 35  1  0
  9 10  1  0
  9 36  1  0
 10 11  2  0
 10 13  1  0
 11 12  1  0
 11 37  1  0
 12 38  1  0
 13 14  1  0
 13 39  1  0
 13 40  1  0
 14 15  1  0
 14 41  1  0
 14 42  1  0
 15 16  1  0
 15 43  1  0
 15 44  1  0
 16 17  1  0
 17 18  1  0
 17 22  2  0
 18 19  2  0
 18 45  1  0
 19 20  1  0
 19 46  1  0
 20 21  2  0
 20 23  1  0
 21 22  1  0
 21 47  1  0
 22 48  1  0
 23 24  1  0
 24 25  1  0
 24 29  2  0
 25 26  2  0
 25 49  1  0
 26 27  1  0
 26 50  1  0
 27 28  2  0
 27 51  1  0
 28 29  1  0
 28 52  1  0
 29 53  1  0
 30 54  1  0
 30 55  1  0
 30 56  1  0
M  END
> <Name>
CHEMBL2204691

> <Clean Energy>
33.473202

> <chembl_id>
CHEMBL2204691

> <chembl_pref_name>
None

> <efficacy>
0.047483381

> <Forcefield>
MMFF

> <ForcefieldBase>
MMFF

> <ForcefieldFFML>
<?xml version="1.0" encoding="UTF-8"?>
<!DOCTYPE ffml SYSTEM "Ffml.dtd">
<ffml version="1.0">
<forcefield name="MMFF" derivedFrom="MMFF" base="MMFF">
<atomTypes>
<atomType
name="C100"
element="C"
mass="12.011"
annotation=""/>
<atomType
name="O101"
element="O"
mass="16"
annotation=""/>
<atomType
name="H102"
element="H"
mass="1.008"
annotation=""/>
</atomTypes>
<parameters>
</parameters>
</forcefield>
</ffml>

> <Initial Potential Energy>
219.1273

> <Initial RMS Gradient>
36.68467

> <Minimization Criteria>
STEEPD> Minimization exiting with gradient tolerance ( 3.0000000) satisfied.

> <CHARMm Energy>
96.28108

> <Potential Energy>
96.28108

> <RMS Gradient>
0.1487

> <Bond Energy>
6.29381

> <Angle Energy>
24.11751

> <STRBend>
0.69667

> <Dihedral Energy>
11.17466

> <OOPLane>
0.13559

> <Van der Waals Energy>
63.83814

> <Electrostatic Energy>
-9.97531

> <Hydrogen Bond Energy>
0

> <Solvation Free Energy>
0

> <HasGasteigerCharges>
true

> <REMARK99>
REMARK  99  MacroMolecule created from Mol2 file
REMARK  99  CHEMBL2204691
REMARK  99  PROTEIN
REMARK  99  GASTEIGER
REMARK  99
REMARK  99

$$$$
CHEMBL3348830
  SciTegic05292516403D

 70 74  0  0  0  0            999 V2000
    4.7397   -2.9230    0.7963 C   0  0
    3.6955   -3.2739   -0.2706 C   0  0  2  0  0  0
    2.4349   -2.6095   -0.0022 N   0  0
    2.2541   -1.2709   -0.2932 C   0  0
    3.1496   -0.5805   -0.7700 O   0  0
    0.9289   -0.6837    0.0716 C   0  0
    0.8504    0.6880    0.3265 C   0  0
   -0.3529    1.2818    0.7336 C   0  0
   -1.4856    0.4596    0.9013 C   0  0
   -1.4348   -0.9099    0.6318 C   0  0
   -0.2209   -1.4790    0.1848 C   0  0
   -2.7199   -1.4615    0.9202 C   0  0
   -3.1141   -2.8909    0.7724 C   0  0
   -3.4992   -0.4402    1.4365 C   0  0
   -4.8775   -0.5199    2.0071 C   0  0
   -2.7784    0.7385    1.3280 N   0  0
   -3.2437    2.0718    1.7264 C   0  0
   -4.5717    2.4870    1.1267 C   0  0
   -5.5385    3.1137    1.9298 C   0  0
   -6.7837    3.4900    1.4041 C   0  0
   -7.0945    3.2552    0.0554 C   0  0
   -6.1094    2.6551   -0.7485 C   0  0
   -4.8609    2.2924   -0.2284 C   0  0
   -8.4265    3.5966   -0.4843 C   0  0
   -9.5794    3.0643    0.1252 C   0  0
  -10.8600    3.3401   -0.3672 C   0  0
  -11.0205    4.1494   -1.4883 C   0  0
   -9.9034    4.6967   -2.1115 C   0  0
   -8.6246    4.4277   -1.6051 C   0  0
   -7.4937    5.0731   -2.2903 C   0  0
   -6.9658    4.6166   -3.2877 O   0  0
   -7.1163    6.2070   -1.6666 O   0  0
    3.4714   -4.7723   -0.4280 C   0  0
    3.4665   -5.6549    0.6654 C   0  0
    3.3272   -7.0341    0.4724 C   0  0
    3.1688   -7.5405   -0.8234 C   0  0
    3.1072   -6.6715   -1.9183 C   0  0
    3.2546   -5.2961   -1.7156 C   0  0
    3.1129   -8.9913   -1.0392 N   0  3
    2.9774   -9.4061   -2.2020 O   0  0
    3.2572   -9.7355   -0.0553 O   0  5
    5.6726   -3.4732    0.6306 H   0  0
    4.3824   -3.1463    1.8077 H   0  0
    4.9745   -1.8530    0.7750 H   0  0
    4.0823   -2.8879   -1.2234 H   0  0
    1.7275   -3.1224    0.5026 H   0  0
    1.7494    1.2954    0.2246 H   0  0
   -0.3867    2.3497    0.9318 H   0  0
   -0.2011   -2.5357   -0.0545 H   0  0
   -4.1746   -2.9808    0.5165 H   0  0
   -2.9360   -3.4303    1.7080 H   0  0
   -2.5440   -3.3802   -0.0234 H   0  0
   -5.0001    0.1506    2.8627 H   0  0
   -5.0908   -1.5318    2.3672 H   0  0
   -5.6251   -0.2760    1.2472 H   0  0
   -3.2937    2.0489    2.8219 H   0  0
   -2.4940    2.8136    1.4379 H   0  0
   -5.3355    3.3048    2.9820 H   0  0
   -7.5139    3.9646    2.0606 H   0  0
   -6.3070    2.4496   -1.8007 H   0  0
   -4.1299    1.8282   -0.8906 H   0  0
   -9.4883    2.4054    0.9880 H   0  0
  -11.7318    2.9062    0.1179 H   0  0
  -12.0147    4.3458   -1.8796 H   0  0
  -10.0233    5.3239   -2.9921 H   0  0
   -7.6691    6.4358   -0.8940 H   0  0
    3.5997   -5.2839    1.6795 H   0  0
    3.3791   -7.7013    1.3321 H   0  0
    2.9834   -7.0500   -2.9318 H   0  0
    3.2270   -4.6298   -2.5779 H   0  0
  1 42  1  0
  1 43  1  0
  1 44  1  0
  2  1  1  0
  2  3  1  0
  2 33  1  0
  2 45  1  0
  3  4  1  0
  3 46  1  0
  4  5  2  0
  4  6  1  0
  6  7  2  0
  7  8  1  0
  7 47  1  0
  8  9  2  0
  8 48  1  0
  9 10  1  0
 10 11  2  0
 10 12  1  0
 11  6  1  0
 11 49  1  0
 12 13  1  0
 12 14  2  0
 13 50  1  0
 13 51  1  0
 13 52  1  0
 14 15  1  0
 14 16  1  0
 15 53  1  0
 15 54  1  0
 15 55  1  0
 16  9  1  0
 16 17  1  0
 17 18  1  0
 17 56  1  0
 17 57  1  0
 18 19  2  0
 19 20  1  0
 19 58  1  0
 20 21  2  0
 20 59  1  0
 21 22  1  0
 21 24  1  0
 22 23  2  0
 22 60  1  0
 23 18  1  0
 23 61  1  0
 24 25  2  0
 25 26  1  0
 25 62  1  0
 26 27  2  0
 26 63  1  0
 27 28  1  0
 27 64  1  0
 28 29  2  0
 28 65  1  0
 29 24  1  0
 29 30  1  0
 30 31  2  0
 30 32  1  0
 32 66  1  0
 33 34  2  0
 34 35  1  0
 34 67  1  0
 35 36  2  0
 35 68  1  0
 36 37  1  0
 36 39  1  0
 37 38  2  0
 37 69  1  0
 38 33  1  0
 38 70  1  0
 39 40  2  0
 39 41  1  0
M  CHG  2  39   1  41  -1
M  END
> <Name>
CHEMBL3348830

> <Clean Energy>
67.546402

> <chembl_id>
CHEMBL3348830

> <chembl_pref_name>
None

> <efficacy>
0

> <Forcefield>
MMFF

> <ForcefieldBase>
MMFF

> <ForcefieldFFML>
<?xml version="1.0" encoding="UTF-8"?>
<!DOCTYPE ffml SYSTEM "Ffml.dtd">
<ffml version="1.0">
<forcefield name="MMFF" derivedFrom="MMFF" base="MMFF">
<atomTypes>
<atomType
name="C100"
element="C"
mass="12.011"
annotation=""/>
<atomType
name="N101"
element="N"
mass="14.007"
annotation=""/>
<atomType
name="O102"
element="O"
mass="16"
annotation=""/>
<atomType
name="H103"
element="H"
mass="1.008"
annotation=""/>
</atomTypes>
<parameters>
</parameters>
</forcefield>
</ffml>

> <Initial Potential Energy>
572.51129

> <Initial RMS Gradient>
153.38488

> <Minimization Criteria>
STEEPD> Minimization exiting with gradient tolerance ( 3.0000000) satisfied.

> <CHARMm Energy>
115.47061

> <Potential Energy>
115.47061

> <RMS Gradient>
0.08171

> <Bond Energy>
11.39347

> <Angle Energy>
13.25931

> <STRBend>
0.52975

> <Dihedral Energy>
14.21968

> <OOPLane>
0.25294

> <Van der Waals Energy>
84.28473

> <Electrostatic Energy>
-8.46927

> <Hydrogen Bond Energy>
0

> <Solvation Free Energy>
0

> <HasGasteigerCharges>
true

> <REMARK99>
REMARK  99  MacroMolecule created from Mol2 file
REMARK  99  CHEMBL3348830
REMARK  99  PROTEIN
REMARK  99  GASTEIGER
REMARK  99
REMARK  99

$$$$
CHEMBL1644315
  SciTegic05292516403D

 67 70  0  0  0  0            999 V2000
   19.2763  -30.4336    0.3016 C   0  0
   19.7629  -31.2758   -0.7012 C   0  0
   21.0657  -31.7792   -0.6177 C   0  0
   21.8846  -31.4415    0.4637 C   0  0
   21.3804  -30.6657    1.5184 C   0  0
   20.0770  -30.1464    1.4157 C   0  0
   17.9091  -29.8382    0.1663 C   0  0
   17.7979  -28.3247    0.4364 C   0  0
   16.9334  -30.6277   -0.1889 N   0  0
   15.7119  -29.9510   -0.2958 O   0  0
   14.6546  -30.8870   -0.5409 C   0  0
   13.3972  -30.1744   -0.9072 C   0  0
   13.1676  -29.3281   -1.9724 C   0  0
   11.8780  -28.8861   -1.8909 O   0  0
   11.3772  -29.4938   -0.7687 C   0  0
   12.2390  -30.2839   -0.1572 N   0  0
   13.9794  -28.8222   -3.0920 C   0  0
   10.0052  -29.1773   -0.3953 C   0  0
    9.1982  -28.3363   -1.1724 C   0  0
    7.8908  -28.0428   -0.7777 C   0  0
    7.3719  -28.5765    0.4068 C   0  0
    8.1650  -29.4321    1.1770 C   0  0
    9.4709  -29.7240    0.7810 C   0  0
   22.2099  -30.3548    2.7301 C   0  0
   23.1610  -31.9517    0.5127 O   0  0
   24.1068  -31.0528   -0.0621 C   0  0
   24.2949  -31.1626   -1.5753 C   0  0
   25.1011  -30.1977   -2.0798 O   0  0
   23.7867  -32.0048   -2.3000 O   0  0
   17.3806  -27.5367   -0.8142 C   0  0
   17.3239  -26.0364   -0.5309 C   0  0
   16.4290  -25.7237    0.6658 C   0  0
   16.8578  -26.4986    1.9094 C   0  0
   16.9111  -28.0028    1.6461 C   0  0
    5.9601  -28.2848    0.8153 C   0  0
   19.1365  -31.5314   -1.5532 H   0  0
   21.4422  -32.4331   -1.4023 H   0  0
   19.6787  -29.5333    2.2213 H   0  0
   18.8046  -27.9603    0.6833 H   0  0
   14.9412  -31.5588   -1.3588 H   0  0
   14.5010  -31.4845    0.3645 H   0  0
   13.4271  -28.8965   -4.0339 H   0  0
   14.9067  -29.3931   -3.1985 H   0  0
   14.2414  -27.7726   -2.9278 H   0  0
    9.5802  -27.9021   -2.0937 H   0  0
    7.2791  -27.3936   -1.4010 H   0  0
    7.7700  -29.8744    2.0893 H   0  0
   10.0821  -30.3830    1.3971 H   0  0
   21.5798  -30.0602    3.5761 H   0  0
   22.9012  -29.5350    2.5129 H   0  0
   22.7810  -31.2332    3.0479 H   0  0
   23.8660  -30.0111    0.1858 H   0  0
   25.0751  -31.2869    0.3942 H   0  0
   25.5962  -29.6613   -1.4284 H   0  0
   18.0886  -27.7302   -1.6291 H   0  0
   16.3997  -27.8559   -1.1794 H   0  0
   18.3368  -25.6623   -0.3374 H   0  0
   16.9530  -25.5085   -1.4167 H   0  0
   16.4572  -24.6484    0.8748 H   0  0
   15.3899  -25.9750    0.4197 H   0  0
   17.8457  -26.1497    2.2346 H   0  0
   16.1613  -26.2934    2.7302 H   0  0
   15.8888  -28.3655    1.4973 H   0  0
   17.2913  -28.5175    2.5364 H   0  0
    5.8571  -28.2991    1.9055 H   0  0
    5.2843  -29.0312    0.3864 H   0  0
    5.6513  -27.2910    0.4743 H   0  0
  1  2  2  0
  1  7  1  0
  2  3  1  0
  2 36  1  0
  3  4  2  0
  3 37  1  0
  4  5  1  0
  4 25  1  0
  5  6  2  0
  5 24  1  0
  6  1  1  0
  6 38  1  0
  7  8  1  0
  7  9  2  0
  8 30  1  0
  8 34  1  0
  8 39  1  0
  9 10  1  0
 10 11  1  0
 11 12  1  0
 11 40  1  0
 11 41  1  0
 12 13  2  0
 13 14  1  0
 13 17  1  0
 14 15  1  0
 15 16  2  0
 15 18  1  0
 16 12  1  0
 17 42  1  0
 17 43  1  0
 17 44  1  0
 18 19  2  0
 19 20  1  0
 19 45  1  0
 20 21  2  0
 20 46  1  0
 21 22  1  0
 21 35  1  0
 22 23  2  0
 22 47  1  0
 23 18  1  0
 23 48  1  0
 24 49  1  0
 24 50  1  0
 24 51  1  0
 25 26  1  0
 26 27  1  0
 26 52  1  0
 26 53  1  0
 27 28  1  0
 27 29  2  0
 28 54  1  0
 30 31  1  0
 30 55  1  0
 30 56  1  0
 31 32  1  0
 31 57  1  0
 31 58  1  0
 32 33  1  0
 32 59  1  0
 32 60  1  0
 33 34  1  0
 33 61  1  0
 33 62  1  0
 34 63  1  0
 34 64  1  0
 35 65  1  0
 35 66  1  0
 35 67  1  0
M  END
> <Name>
CHEMBL1644315

> <Clean Energy>
58.6143

> <chembl_id>
CHEMBL1644315

> <chembl_pref_name>
None

> <efficacy>
0.294

> <Forcefield>
MMFF

> <ForcefieldBase>
MMFF

> <ForcefieldFFML>
<?xml version="1.0" encoding="UTF-8"?>
<!DOCTYPE ffml SYSTEM "Ffml.dtd">
<ffml version="1.0">
<forcefield name="MMFF" derivedFrom="MMFF" base="MMFF">
<atomTypes>
<atomType
name="C100"
element="C"
mass="12.011"
annotation=""/>
<atomType
name="N101"
element="N"
mass="14.007"
annotation=""/>
<atomType
name="O102"
element="O"
mass="16"
annotation=""/>
<atomType
name="H103"
element="H"
mass="1.008"
annotation=""/>
</atomTypes>
<parameters>
</parameters>
</forcefield>
</ffml>

> <Initial Potential Energy>
285.87194

> <Initial RMS Gradient>
36.4584

> <Minimization Criteria>
CONJUG> Minimization exiting with gradient tolerance ( 0.0100000) satisfied.

> <CHARMm Energy>
125.92964

> <Potential Energy>
125.92964

> <RMS Gradient>
0.00966

> <Bond Energy>
6.48097

> <Angle Energy>
12.29461

> <STRBend>
1.15991

> <Dihedral Energy>
3.87883

> <OOPLane>
0.07955

> <Van der Waals Energy>
54.02054

> <Electrostatic Energy>
48.01523

> <Hydrogen Bond Energy>
0

> <Solvation Free Energy>
0

> <HasGasteigerCharges>
true

> <REMARK99>
REMARK  99  MacroMolecule created from Mol2 file
REMARK  99  CHEMBL1644315
REMARK  99  PROTEIN
REMARK  99  GASTEIGER
REMARK  99
REMARK  99

$$$$
CHEMBL5086086
  SciTegic05292516403D

 55 58  0  0  0  0            999 V2000
   23.7161  -28.6900    1.1832 O   0  0
   23.5881  -28.3040   -0.2106 S   0  0
   22.4159  -28.7227   -0.9652 O   0  0
   26.8615  -28.4969    0.6094 C   0  0
   26.2989  -28.1906   -0.6372 C   0  0
   26.9653  -27.2700   -1.4602 C   0  0
   28.1604  -26.6695   -1.0434 C   0  0
   28.7117  -26.9634    0.2103 C   0  0
   28.0509  -27.8884    1.0289 C   0  0
   30.0066  -26.3247    0.6541 C   0  0
   31.1536  -27.1321    0.2952 N   0  0
   32.4354  -26.6263    0.3826 C   0  0
   33.5681  -27.5127   -0.0246 C   0  0
   32.6858  -25.4943    0.7922 O   0  0
   33.3996  -28.7233   -0.7040 C   0  0
   34.4963  -29.5270   -1.0447 C   0  0
   34.8665  -27.0712    0.2859 C   0  0
   35.9845  -27.8563   -0.0563 C   0  0
   35.7813  -29.0784   -0.6992 C   0  0
   37.0291  -29.6556   -0.8550 N   0  0
   38.0065  -28.8022   -0.3997 C   0  0
   37.3852  -27.6877    0.1122 C   0  0
   37.2964  -30.9884   -1.3848 C   0  0
   37.5526  -31.9756   -0.2705 C   0  0
   36.5359  -32.2975    0.6457 C   0  0
   36.7698  -33.1756    1.7037 C   0  0
   38.0256  -33.7507    1.8544 C   0  0
   39.0316  -33.4553    0.9415 C   0  0
   38.8089  -32.5758   -0.1151 C   0  0
   40.2365  -34.0257    1.0805 F   0  0
   25.0337  -28.8636   -1.1118 C   0  0
   23.6531  -26.5282   -0.2961 C   0  0
   26.3808  -29.2154    1.2735 H   0  0
   26.5681  -27.0139   -2.4415 H   0  0
   28.6637  -25.9682   -1.7071 H   0  0
   28.4602  -28.1463    2.0046 H   0  0
   30.1151  -25.3276    0.2108 H   0  0
   30.0137  -26.1896    1.7421 H   0  0
   30.9941  -28.1019    0.0703 H   0  0
   32.4157  -29.0733   -0.9992 H   0  0
   34.3512  -30.4716   -1.5593 H   0  0
   35.0278  -26.1244    0.7979 H   0  0
   39.0537  -29.0695   -0.4494 H   0  0
   37.8779  -26.8406    0.5701 H   0  0
   36.4506  -31.3126   -1.9989 H   0  0
   38.1636  -30.9002   -2.0501 H   0  0
   35.5515  -31.8453    0.5573 H   0  0
   35.9736  -33.3968    2.4103 H   0  0
   38.2244  -34.4232    2.6799 H   0  0
   39.6294  -32.3675   -0.7967 H   0  0
   24.8492  -28.6597   -2.1718 H   0  0
   25.1045  -29.9487   -0.9844 H   0  0
   23.7282  -26.2282   -1.3429 H   0  0
   24.5058  -26.1656    0.2792 H   0  0
   22.7287  -26.1375    0.1353 H   0  0
  2  1  2  0
  2 32  1  0
  3  2  2  0
  4  5  2  0
  4 33  1  0
  5  6  1  0
  5 31  1  0
  6  7  2  0
  6 34  1  0
  7  8  1  0
  7 35  1  0
  8  9  2  0
  8 10  1  0
  9  4  1  0
  9 36  1  0
 10 11  1  0
 10 37  1  0
 10 38  1  0
 11 12  1  0
 11 39  1  0
 12 13  1  0
 12 14  2  0
 13 15  2  0
 15 16  1  0
 15 40  1  0
 16 19  2  0
 16 41  1  0
 17 13  1  0
 17 42  1  0
 18 17  2  0
 18 19  1  0
 19 20  1  0
 20 21  1  0
 20 23  1  0
 21 22  2  0
 21 43  1  0
 22 18  1  0
 22 44  1  0
 23 24  1  0
 23 45  1  0
 23 46  1  0
 24 25  2  0
 25 26  1  0
 25 47  1  0
 26 27  2  0
 26 48  1  0
 27 28  1  0
 27 49  1  0
 28 29  2  0
 28 30  1  0
 29 24  1  0
 29 50  1  0
 31  2  1  0
 31 51  1  0
 31 52  1  0
 32 53  1  0
 32 54  1  0
 32 55  1  0
M  END
> <Name>
CHEMBL5086086

> <Clean Energy>
37.192101

> <chembl_id>
CHEMBL5086086

> <chembl_pref_name>
None

> <efficacy>
0.151946819

> <Forcefield>
MMFF

> <ForcefieldBase>
MMFF

> <ForcefieldFFML>
<?xml version="1.0" encoding="UTF-8"?>
<!DOCTYPE ffml SYSTEM "Ffml.dtd">
<ffml version="1.0">
<forcefield name="MMFF" derivedFrom="MMFF" base="MMFF">
<atomTypes>
<atomType
name="O100"
element="O"
mass="16"
annotation=""/>
<atomType
name="S101"
element="S"
mass="32.066"
annotation=""/>
<atomType
name="C102"
element="C"
mass="12.011"
annotation=""/>
<atomType
name="N103"
element="N"
mass="14.007"
annotation=""/>
<atomType
name="F104"
element="F"
mass="18.998"
annotation=""/>
<atomType
name="H105"
element="H"
mass="1.008"
annotation=""/>
</atomTypes>
<parameters>
</parameters>
</forcefield>
</ffml>

> <Initial Potential Energy>
500.85858

> <Initial RMS Gradient>
222.55463

> <Minimization Criteria>
STEEPD> Minimization exiting with gradient tolerance ( 3.0000000) satisfied.

> <CHARMm Energy>
71.5757

> <Potential Energy>
71.5757

> <RMS Gradient>
0.01161

> <Bond Energy>
6.45691

> <Angle Energy>
8.03031

> <STRBend>
0.4859

> <Dihedral Energy>
3.11077

> <OOPLane>
0.05826

> <Van der Waals Energy>
55.336

> <Electrostatic Energy>
-1.90244

> <Hydrogen Bond Energy>
0

> <Solvation Free Energy>
0

> <HasGasteigerCharges>
true

> <REMARK99>
REMARK  99  MacroMolecule created from Mol2 file
REMARK  99  CHEMBL5086086
REMARK  99  PROTEIN
REMARK  99  GASTEIGER
REMARK  99
REMARK  99

$$$$
CHEMBL181554
  SciTegic05292516403D

 65 68  0  0  0  0            999 V2000
   -0.5193   -1.6858   -0.2402 N   0  0
    0.7001   -1.0819    0.1231 C   0  0
    0.4240    0.1795    0.6560 C   0  0
   -1.4849   -0.6780   -0.3065 C   0  0
   -0.9518    0.4471    0.3223 C   0  0
   -0.7462   -3.0749   -0.4771 C   0  0
   -5.2250    2.5816    0.3509 C   0  0
    6.5580    3.1531   -0.5947 C   0  0
    6.2497    4.3477   -1.5327 C   0  0
   -2.7876   -0.6569   -0.8459 C   0  0
    1.2426    1.1819    1.4434 C   0  0
   -2.0730   -3.7293   -0.5491 C   0  0
    5.4170    2.2849   -0.7980 O   0  0
   -1.7853    1.5781    0.5040 C   0  0
   -3.8134    2.7203    0.2884 O   0  0
    0.2187   -3.8314   -0.5824 O   0  0
   -3.1036    1.5803    0.0333 C   0  0
    5.1301    4.5868   -1.9806 O   0  0
    4.8315    1.6092    0.2277 C   0  0
    2.7300    1.0084    1.3077 C   0  0
   -2.9777   -3.6396    0.5152 C   0  0
   -2.3866   -4.5024   -1.6690 C   0  0
   -5.7868    2.4203   -0.8735 F   0  0
   -5.7754    3.7005    0.8909 F   0  0
   -5.6095    1.5421    1.1354 F   0  0
   -3.5797    0.4822   -0.6680 C   0  0
    3.4392    1.6938    0.3067 C   0  0
    1.9953   -1.8175   -0.0145 C   0  0
    7.3016    5.1697   -1.7941 O   0  0
   -4.5399   -5.0571   -0.6848 C   0  0
   -4.2130   -4.2994    0.4425 C   0  0
   -3.6218   -5.1516   -1.7361 C   0  0
   -5.7040   -5.7470   -0.8856 O   0  0
    6.7126    3.7290    0.8187 C   0  0
    7.8072    2.4087   -1.0713 C   0  0
    4.8369    0.0996    2.1157 C   0  0
    5.5208    0.7861    1.1108 C   0  0
    3.4504    0.2225    2.2234 C   0  0
   -6.6443   -5.7658    0.1820 C   0  0
   -3.2082   -1.4952   -1.3972 H   0  0
    0.9837    2.2028    1.1352 H   0  0
    0.9602    1.1071    2.5018 H   0  0
   -1.4029    2.4592    1.0129 H   0  0
   -2.7296   -3.0617    1.4029 H   0  0
   -1.6757   -4.5999   -2.4867 H   0  0
   -4.5799    0.4632   -1.0971 H   0  0
    2.9095    2.3170   -0.4124 H   0  0
    2.8418   -1.1401   -0.1208 H   0  0
    2.0225   -2.4168   -0.9295 H   0  0
    2.1667   -2.4657    0.8498 H   0  0
    8.1379    4.9264   -1.3604 H   0  0
   -4.8940   -4.2040    1.2823 H   0  0
   -3.8674   -5.7450   -2.6132 H   0  0
    7.4635    4.5264    0.8475 H   0  0
    7.0295    2.9706    1.5403 H   0  0
    5.7674    4.1516    1.1783 H   0  0
    8.7224    2.9877   -0.9138 H   0  0
    7.7347    2.1766   -2.1402 H   0  0
    7.9294    1.4527   -0.5547 H   0  0
    5.3934   -0.5354    2.8051 H   0  0
    6.5910    0.6476    1.0274 H   0  0
    2.9268   -0.3147    3.0115 H   0  0
   -7.4899   -6.3877   -0.1267 H   0  0
   -7.0251   -4.7597    0.3860 H   0  0
   -6.2103   -6.2133    1.0823 H   0  0
  2  1  1  0
  3  2  2  0
  3  5  1  0
  4  1  1  0
  5  4  1  0
  6  1  1  0
  7 15  1  0
  8 13  1  0
  9  8  1  0
 10  4  2  0
 10 40  1  0
 11  3  1  0
 11 41  1  0
 11 42  1  0
 12  6  1  0
 13 19  1  0
 14  5  2  0
 14 43  1  0
 15 17  1  0
 16  6  2  0
 17 14  1  0
 17 26  2  0
 18  9  2  0
 19 27  2  0
 20 11  1  0
 21 12  2  0
 21 44  1  0
 22 12  1  0
 22 45  1  0
 23  7  1  0
 24  7  1  0
 25  7  1  0
 26 10  1  0
 26 46  1  0
 27 20  1  0
 27 47  1  0
 28  2  1  0
 28 48  1  0
 28 49  1  0
 28 50  1  0
 29  9  1  0
 29 51  1  0
 30 31  2  0
 30 32  1  0
 31 21  1  0
 31 52  1  0
 32 22  2  0
 32 53  1  0
 33 30  1  0
 34  8  1  0
 34 54  1  0
 34 55  1  0
 34 56  1  0
 35  8  1  0
 35 57  1  0
 35 58  1  0
 35 59  1  0
 36 38  1  0
 36 60  1  0
 37 19  1  0
 37 36  2  0
 37 61  1  0
 38 20  2  0
 38 62  1  0
 39 33  1  0
 39 63  1  0
 39 64  1  0
 39 65  1  0
M  END
> <Name>
CHEMBL181554

> <Clean Energy>
83.4496

> <chembl_id>
CHEMBL181554

> <chembl_pref_name>
None

> <efficacy>
0.24

> <Forcefield>
MMFF

> <ForcefieldBase>
MMFF

> <ForcefieldFFML>
<?xml version="1.0" encoding="UTF-8"?>
<!DOCTYPE ffml SYSTEM "Ffml.dtd">
<ffml version="1.0">
<forcefield name="MMFF" derivedFrom="MMFF" base="MMFF">
<atomTypes>
<atomType
name="N100"
element="N"
mass="14.007"
annotation=""/>
<atomType
name="C101"
element="C"
mass="12.011"
annotation=""/>
<atomType
name="O102"
element="O"
mass="16"
annotation=""/>
<atomType
name="F103"
element="F"
mass="18.998"
annotation=""/>
<atomType
name="H104"
element="H"
mass="1.008"
annotation=""/>
</atomTypes>
<parameters>
</parameters>
</forcefield>
</ffml>

> <Initial Potential Energy>
776.64578

> <Initial RMS Gradient>
286.67983

> <Minimization Criteria>
STEEPD> Minimization exiting with gradient tolerance ( 3.0000000) satisfied.

> <CHARMm Energy>
151.18581

> <Potential Energy>
151.18581

> <RMS Gradient>
0.04186

> <Bond Energy>
10.49221

> <Angle Energy>
36.38214

> <STRBend>
-0.01637

> <Dihedral Energy>
19.60162

> <OOPLane>
0.24725

> <Van der Waals Energy>
74.56167

> <Electrostatic Energy>
9.91728

> <Hydrogen Bond Energy>
0

> <Solvation Free Energy>
0

> <HasGasteigerCharges>
true

> <REMARK99>
REMARK  99  MacroMolecule created from Mol2 file
REMARK  99  CHEMBL181554
REMARK  99  PROTEIN
REMARK  99  GASTEIGER
REMARK  99
REMARK  99

$$$$
CHEMBL5084422
  SciTegic05292516403D

 45 48  0  0  0  0            999 V2000
    9.8267   -9.6600   -0.1417 C   0  0
   10.9174   -8.7472   -0.7358 C   0  0
   10.1451  -10.6215    0.5500 O   0  0
    8.5426   -9.2085   -0.4217 N   0  0
   12.0890   -9.5028   -1.0407 O   0  0
   14.2068   -9.7682   -0.0836 C   0  0
   13.2679   -8.9226   -0.6751 C   0  0
   13.5813   -7.5903   -0.9225 C   0  0
   14.8262   -7.0922   -0.5375 C   0  0
   15.7735   -7.9256    0.0793 C   0  0
   17.0326   -7.4419    0.4591 C   0  0
   17.9758   -8.2889    1.0539 C   0  0
   17.6616   -9.6275    1.2868 C   0  0
   16.4107  -10.1216    0.9151 C   0  0
   15.4610   -9.2838    0.3085 C   0  0
   19.2850   -7.7471    1.4055 C   0  0
   21.8595   -7.0493    1.0397 S   0  0
   22.6051   -7.5180   -0.4691 C   0  0
   21.7703   -8.3130   -1.1754 N   0  0
   20.5425   -8.5773   -0.6531 C   0  0
   20.3801   -7.8552    0.6436 C   0  0
   19.7332   -9.3093   -1.1941 O   0  0
   23.7189   -7.1702   -0.8193 O   0  0
    7.3178   -9.8413   -0.1188 C   0  0
    7.1640  -11.1856    0.2468 C   0  0
    5.9073  -11.7164    0.5369 C   0  0
    4.7817  -10.9062    0.4504 C   0  0
    4.9034   -9.5739    0.0644 C   0  0
    6.1658   -9.0471   -0.2257 C   0  0
    8.1951  -12.0383    0.2620 F   0  0
    3.0767  -11.6195    0.8400 Br  0  0
   10.5564   -8.2881   -1.6624 H   0  0
   11.0971   -7.9610    0.0091 H   0  0
    8.4916   -8.2871   -0.8356 H   0  0
   13.9488  -10.8126    0.0746 H   0  0
   12.8878   -6.9330   -1.4333 H   0  0
   15.0615   -6.0494   -0.7384 H   0  0
   17.2886   -6.4001    0.2768 H   0  0
   18.3891  -10.2983    1.7386 H   0  0
   16.1852  -11.1711    1.0916 H   0  0
   19.2995   -7.1675    2.3257 H   0  0
   22.0652   -8.7022   -2.0563 H   0  0
    5.8334  -12.7636    0.8128 H   0  0
    4.0255   -8.9370   -0.0121 H   0  0
    6.2350   -8.0017   -0.5168 H   0  0
  1  2  1  0
  1  3  2  0
  1  4  1  0
  2  5  1  0
  2 32  1  0
  2 33  1  0
  4 24  1  0
  4 34  1  0
  5  7  1  0
  6  7  1  0
  6 15  2  0
  6 35  1  0
  7  8  2  0
  8  9  1  0
  8 36  1  0
  9 10  2  0
  9 37  1  0
 10 11  1  0
 10 15  1  0
 11 12  2  0
 11 38  1  0
 12 13  1  0
 12 16  1  0
 13 14  2  0
 13 39  1  0
 14 15  1  0
 14 40  1  0
 16 21  2  0
 16 41  1  0
 17 18  1  0
 17 21  1  0
 18 19  1  0
 18 23  2  0
 19 20  1  0
 19 42  1  0
 20 21  1  0
 20 22  2  0
 24 25  1  0
 24 29  2  0
 25 26  2  0
 25 30  1  0
 26 27  1  0
 26 43  1  0
 27 28  2  0
 27 31  1  0
 28 29  1  0
 28 44  1  0
 29 45  1  0
M  END
> <Name>
CHEMBL5084422

> <Clean Energy>
31.9802

> <chembl_id>
CHEMBL5084422

> <chembl_pref_name>
None

> <efficacy>
0.27

> <Forcefield>
MMFF

> <ForcefieldBase>
MMFF

> <ForcefieldFFML>
<?xml version="1.0" encoding="UTF-8"?>
<!DOCTYPE ffml SYSTEM "Ffml.dtd">
<ffml version="1.0">
<forcefield name="MMFF" derivedFrom="MMFF" base="MMFF">
<atomTypes>
<atomType
name="C100"
element="C"
mass="12.011"
annotation=""/>
<atomType
name="O101"
element="O"
mass="16"
annotation=""/>
<atomType
name="N102"
element="N"
mass="14.007"
annotation=""/>
<atomType
name="S103"
element="S"
mass="32.066"
annotation=""/>
<atomType
name="F104"
element="F"
mass="18.998"
annotation=""/>
<atomType
name="Br105"
element="Br"
mass="79.904"
annotation=""/>
<atomType
name="H106"
element="H"
mass="1.008"
annotation=""/>
</atomTypes>
<parameters>
</parameters>
</forcefield>
</ffml>

> <Initial Potential Energy>
92.01705

> <Initial RMS Gradient>
34.18764

> <Minimization Criteria>
CONJUG> Minimization exiting with gradient tolerance ( 0.0100000) satisfied.

> <CHARMm Energy>
19.21165

> <Potential Energy>
19.21165

> <RMS Gradient>
0.00824

> <Bond Energy>
5.70097

> <Angle Energy>
17.03353

> <STRBend>
-0.02619

> <Dihedral Energy>
15.41184

> <OOPLane>
0.19384

> <Van der Waals Energy>
53.3942

> <Electrostatic Energy>
-72.49654

> <Hydrogen Bond Energy>
0

> <Solvation Free Energy>
0

> <HasGasteigerCharges>
true

> <REMARK99>
REMARK  99  MacroMolecule created from Mol2 file
REMARK  99  CHEMBL5084422
REMARK  99  PROTEIN
REMARK  99  GASTEIGER
REMARK  99
REMARK  99

$$$$
CHEMBL199172
  SciTegic05292516403D

 47 47  0  0  0  0            999 V2000
    1.3732    0.0176   -0.0841 C   0  0
    1.6864   -1.3350   -0.2200 C   0  0
    4.5254    2.1433   -0.2984 C   0  0
    5.4770    2.7179    0.1557 C   0  0
   10.4329    3.1988    0.1463 C   0  0
    0.7863   -2.2835   -0.5934 N   0  0
   10.6079    3.6993   -1.0016 O   0  5
    2.4233    1.0108    0.3573 C   0  0  1  0  0  0
   11.2278    2.5008    0.8393 O   0  0
    2.9843   -1.7129    0.0594 O   0  0
    3.3492    1.4143   -0.8047 C   0  0
    0.0611    0.4046   -0.3909 C   0  0
    1.7815    2.1800    0.8962 O   0  0
    6.6356    3.4008    0.7506 C   0  0
    9.1305    3.5783    0.8361 C   0  0
   -0.4673   -1.8646   -0.8653 C   0  0
    3.2503   -3.0941   -0.1865 C   0  0
    7.9467    2.9428    0.1191 C   0  0
   -0.8737   -0.5452   -0.7853 C   0  0
    4.7253   -3.3435    0.1204 C   0  0
    6.5909   -5.0408    0.1934 C   0  0
    5.1133   -4.8016   -0.1156 C   0  0
    6.9819   -6.4912   -0.0418 C   0  0
    2.9963    0.5758    1.1862 H   0  0
    2.8074    2.0548   -1.5116 H   0  0
    3.6935    0.5337   -1.3590 H   0  0
   -0.2209    1.4524   -0.3172 H   0  0
    2.5019    2.7683    1.1880 H   0  0
    6.5234    4.4846    0.6291 H   0  0
    6.6517    3.2003    1.8287 H   0  0
    9.1542    3.2617    1.8856 H   0  0
    9.0437    4.6715    0.8295 H   0  0
   -1.1618   -2.6453   -1.1622 H   0  0
    2.6306   -3.7205    0.4670 H   0  0
    3.0503   -3.3382   -1.2374 H   0  0
    7.9545    3.2038   -0.9469 H   0  0
    8.0319    1.8494    0.1689 H   0  0
   -1.8932   -0.2613   -1.0194 H   0  0
    5.3416   -2.6809   -0.5003 H   0  0
    4.9322   -3.0589    1.1598 H   0  0
    7.2127   -4.3944   -0.4369 H   0  0
    6.8010   -4.7763    1.2362 H   0  0
    4.9074   -5.0724   -1.1584 H   0  0
    4.4958   -5.4528    0.5151 H   0  0
    8.0422   -6.6395    0.1855 H   0  0
    6.8147   -6.7783   -1.0849 H   0  0
    6.4001   -7.1631    0.5973 H   0  0
  2  1  1  0
  3 11  1  0
  4  3  3  0
  5 15  1  0
  6  2  2  0
  7  5  1  0
  8  1  1  0
  8 24  1  0
  9  5  2  0
 10  2  1  0
 11  8  1  0
 11 25  1  0
 11 26  1  0
 12  1  2  0
 12 27  1  0
 13  8  1  0
 13 28  1  0
 14  4  1  0
 14 29  1  0
 14 30  1  0
 15 18  1  0
 15 31  1  0
 15 32  1  0
 16  6  1  0
 16 19  2  0
 16 33  1  0
 17 10  1  0
 17 34  1  0
 17 35  1  0
 18 14  1  0
 18 36  1  0
 18 37  1  0
 19 12  1  0
 19 38  1  0
 20 17  1  0
 20 39  1  0
 20 40  1  0
 21 22  1  0
 21 41  1  0
 21 42  1  0
 22 20  1  0
 22 43  1  0
 22 44  1  0
 23 21  1  0
 23 45  1  0
 23 46  1  0
 23 47  1  0
M  CHG  1   7  -1
M  END
> <Name>
CHEMBL199172

> <Clean Energy>
110.495003

> <chembl_id>
CHEMBL199172

> <chembl_pref_name>
None

> <efficacy>
0.25

> <Forcefield>
MMFF

> <ForcefieldBase>
MMFF

> <ForcefieldFFML>
<?xml version="1.0" encoding="UTF-8"?>
<!DOCTYPE ffml SYSTEM "Ffml.dtd">
<ffml version="1.0">
<forcefield name="MMFF" derivedFrom="MMFF" base="MMFF">
<atomTypes>
<atomType
name="C100"
element="C"
mass="12.011"
annotation=""/>
<atomType
name="N101"
element="N"
mass="14.007"
annotation=""/>
<atomType
name="O102"
element="O"
mass="16"
annotation=""/>
<atomType
name="H103"
element="H"
mass="1.008"
annotation=""/>
</atomTypes>
<parameters>
</parameters>
</forcefield>
</ffml>

> <Initial Potential Energy>
245.60628

> <Initial RMS Gradient>
36.17801

> <Minimization Criteria>
STEEPD> Minimization exiting with gradient tolerance ( 3.0000000) satisfied.

> <CHARMm Energy>
9.2115

> <Potential Energy>
9.2115

> <RMS Gradient>
0.01538

> <Bond Energy>
2.49677

> <Angle Energy>
6.26833

> <STRBend>
0.6622

> <Dihedral Energy>
-8.59048

> <OOPLane>
0.22883

> <Van der Waals Energy>
34.03795

> <Electrostatic Energy>
-25.89209

> <Hydrogen Bond Energy>
0

> <Solvation Free Energy>
0

> <HasGasteigerCharges>
true

> <REMARK99>
REMARK  99  MacroMolecule created from Mol2 file
REMARK  99  CHEMBL199172
REMARK  99  PROTEIN
REMARK  99  GASTEIGER
REMARK  99
REMARK  99

$$$$
CHEMBL194698
  SciTegic05292516403D

 52 52  0  0  0  0            999 V2000
   -2.8082    0.8208    0.5212 C   0  0
    0.1084    2.7281   -1.0572 C   0  0
    1.1831    3.2585   -1.1368 C   0  0
    5.8050    3.4944    0.6598 C   0  0
   -2.7839   -0.5571    0.2215 C   0  0
    6.3705    2.4167    0.5339 O   0  0
   -1.5313    1.6449    0.4792 C   0  0  1  0  0  0
    5.9772    4.3545    1.7009 O   0  0
   -1.2190    2.0899   -0.9611 C   0  0
   -1.5518   -1.0769   -0.0820 O   0  0
   -1.6720    2.7959    1.3289 O   0  0
   -4.0408    1.4307    0.8189 C   0  0
    2.4905    3.9183   -1.2467 C   0  0
    4.8254    4.0587   -0.3349 C   0  0
   -3.9754   -1.2917    0.2337 C   0  0
   -1.4597   -2.4881   -0.2788 C   0  0
    6.9336    3.9174    2.6687 C   0  0
    3.4790    3.3573   -0.2273 C   0  0
    0.0130   -2.8287   -0.4934 C   0  0
    1.7041   -4.6567   -0.8911 C   0  0
    0.2250   -4.3279   -0.6910 C   0  0
   -5.2202    0.6909    0.8330 C   0  0
    1.9244   -6.1494   -1.0766 C   0  0
   -5.1861   -0.6682    0.5415 C   0  0
   -0.7047    1.0594    0.9005 H   0  0
   -1.9774    2.8061   -1.3022 H   0  0
   -1.2482    1.2348   -1.6468 H   0  0
   -0.8214    3.2662    1.2923 H   0  0
   -4.0760    2.4945    1.0462 H   0  0
    2.8843    3.7830   -2.2608 H   0  0
    2.3676    4.9966   -1.0906 H   0  0
    4.7171    5.1373   -0.1706 H   0  0
    5.2591    3.9392   -1.3345 H   0  0
   -4.0004   -2.3519    0.0039 H   0  0
   -1.8301   -3.0191    0.6062 H   0  0
   -2.0358   -2.7812   -1.1643 H   0  0
    7.0033    4.6833    3.4461 H   0  0
    7.9194    3.8009    2.2075 H   0  0
    6.6085    2.9806    3.1318 H   0  0
    3.6075    2.2779   -0.3823 H   0  0
    3.0815    3.4742    0.7894 H   0  0
    0.3905   -2.2737   -1.3613 H   0  0
    0.5957   -2.4729    0.3655 H   0  0
    2.0883   -4.1242   -1.7689 H   0  0
    2.2827   -4.3135   -0.0254 H   0  0
   -0.3493   -4.6691   -1.5608 H   0  0
   -0.1564   -4.8711    0.1821 H   0  0
   -6.1627    1.1760    1.0723 H   0  0
    2.9888   -6.3603   -1.2198 H   0  0
    1.3831   -6.5204   -1.9526 H   0  0
    1.5827   -6.7073   -0.1991 H   0  0
   -6.1072   -1.2463    0.5514 H   0  0
  2  9  1  0
  3  2  3  0
  4 14  1  0
  5  1  1  0
  6  4  2  0
  7  1  1  0
  7 25  1  0
  8  4  1  0
  9  7  1  0
  9 26  1  0
  9 27  1  0
 10  5  1  0
 11  7  1  0
 11 28  1  0
 12  1  2  0
 12 29  1  0
 13  3  1  0
 13 30  1  0
 13 31  1  0
 14 18  1  0
 14 32  1  0
 14 33  1  0
 15  5  2  0
 15 24  1  0
 15 34  1  0
 16 10  1  0
 16 35  1  0
 16 36  1  0
 17  8  1  0
 17 37  1  0
 17 38  1  0
 17 39  1  0
 18 13  1  0
 18 40  1  0
 18 41  1  0
 19 16  1  0
 19 42  1  0
 19 43  1  0
 20 21  1  0
 20 44  1  0
 20 45  1  0
 21 19  1  0
 21 46  1  0
 21 47  1  0
 22 12  1  0
 22 48  1  0
 23 20  1  0
 23 49  1  0
 23 50  1  0
 23 51  1  0
 24 22  2  0
 24 52  1  0
M  END
> <Name>
CHEMBL194698

> <Clean Energy>
110.536003

> <chembl_id>
CHEMBL194698

> <chembl_pref_name>
None

> <efficacy>
0.16

> <Forcefield>
MMFF

> <ForcefieldBase>
MMFF

> <ForcefieldFFML>
<?xml version="1.0" encoding="UTF-8"?>
<!DOCTYPE ffml SYSTEM "Ffml.dtd">
<ffml version="1.0">
<forcefield name="MMFF" derivedFrom="MMFF" base="MMFF">
<atomTypes>
<atomType
name="C100"
element="C"
mass="12.011"
annotation=""/>
<atomType
name="O101"
element="O"
mass="16"
annotation=""/>
<atomType
name="H102"
element="H"
mass="1.008"
annotation=""/>
</atomTypes>
<parameters>
</parameters>
</forcefield>
</ffml>

> <Initial Potential Energy>
239.22231

> <Initial RMS Gradient>
27.8829

> <Minimization Criteria>
STEEPD> Minimization exiting with gradient tolerance ( 3.0000000) satisfied.

> <CHARMm Energy>
26.84668

> <Potential Energy>
26.84668

> <RMS Gradient>
0.0806

> <Bond Energy>
3.32414

> <Angle Energy>
8.99572

> <STRBend>
0.14793

> <Dihedral Energy>
-9.62275

> <OOPLane>
0.01183

> <Van der Waals Energy>
36.708

> <Electrostatic Energy>
-12.71819

> <Hydrogen Bond Energy>
0

> <Solvation Free Energy>
0

> <HasGasteigerCharges>
true

> <REMARK99>
REMARK  99  MacroMolecule created from Mol2 file
REMARK  99  CHEMBL194698
REMARK  99  PROTEIN
REMARK  99  GASTEIGER
REMARK  99
REMARK  99

$$$$
CHEMBL3398438
  SciTegic05292516403D

 69 73  0  0  0  0            999 V2000
    9.1715   -1.6778   -0.6163 C   0  0
   10.5610   -1.6924   -0.7615 C   0  0
    1.8924   -1.0877    0.3316 C   0  0
    2.0065    0.3135    0.3391 C   0  0
    8.4583   -2.8752   -0.7310 C   0  0
    0.6415   -1.7004    0.4470 C   0  0
    3.3246    0.9241    0.2033 C   0  0
    5.3977    1.3794    0.0039 C   0  0
    9.1280   -4.0794   -1.0114 C   0  0
   11.2353   -2.8797   -1.0371 C   0  0
    7.2192   -0.3352   -0.2991 C   0  0
   10.5217   -4.0679   -1.1683 C   0  0
    6.8602    1.1377   -0.1003 C   0  0
    4.5035    0.3365    0.1187 N   0  0
   -0.4067    0.4659    0.5926 C   0  0
    0.8410    1.0836    0.4743 C   0  0
    5.0754    3.9992   -0.0764 C   0  0
    4.7091    2.5752    0.0155 C   0  0
    8.6435   -0.4384   -0.3690 O   0  0
   -0.5056   -0.9238    0.5774 C   0  0
    3.3794    2.2912    0.1448 O   0  0
    8.3634   -5.3781   -1.1454 C   0  0
    7.9417   -6.0104    0.2051 C   0  0  2  0  0  0
    9.1558   -6.3341    1.0888 C   0  0
    9.5952   -7.6276    0.5998 N   0  0
    8.5433   -8.3129   -0.1207 C   0  0
    7.3163   -7.4300    0.0689 C   0  0  2  0  0  0
    6.2680   -7.5918   -1.0031 C   0  0
    5.5763   -6.6679   -1.4070 O   0  0
    6.0860   -8.8612   -1.4393 O   0  0
   10.8746   -8.1073    0.7568 C   0  0
   11.7566   -7.5298    1.3802 O   0  0
   11.0283   -9.3308    0.1050 O   0  0
   12.2977   -9.9209    0.1505 C   0  0
   12.8946  -10.2455   -1.0669 C   0  0
   14.1453  -10.8589   -1.0705 C   0  0
   14.7799  -11.1510    0.1381 C   0  0
   14.1592  -10.8466    1.3512 C   0  0
   12.9069  -10.2395    1.3619 C   0  0
   11.1203   -0.7659   -0.6643 H   0  0
    2.7833   -1.7077    0.2301 H   0  0
    7.3788   -2.8989   -0.6171 H   0  0
    0.5605   -2.7841    0.4328 H   0  0
   12.3152   -2.8756   -1.1497 H   0  0
    6.7689   -0.7008   -1.2307 H   0  0
    6.8500   -0.9270    0.5478 H   0  0
   11.0619   -4.9878   -1.3817 H   0  0
    7.2731    1.7228   -0.9317 H   0  0
    7.3555    1.5116    0.8045 H   0  0
   -1.3024    1.0725    0.6923 H   0  0
    0.8913    2.1718    0.4857 H   0  0
    4.6278    4.5658    0.7459 H   0  0
    4.7218    4.4234   -1.0210 H   0  0
    6.1605    4.1315   -0.0276 H   0  0
   -1.4774   -1.4028    0.6629 H   0  0
    7.4792   -5.1695   -1.7583 H   0  0
    8.9610   -6.0833   -1.7366 H   0  0
    7.2589   -5.3285    0.7255 H   0  0
    9.9675   -5.6045    1.0785 H   0  0
    8.8463   -6.4742    2.1316 H   0  0
    8.8412   -8.4177   -1.1702 H   0  0
    8.4039   -9.3149    0.2991 H   0  0
    6.8329   -7.6857    1.0223 H   0  0
    6.5841   -9.5883   -1.0164 H   0  0
   12.3981  -10.0144   -2.0039 H   0  0
   14.6280  -11.1102   -2.0114 H   0  0
   15.7592  -11.6187    0.1339 H   0  0
   14.6502  -11.0791    2.2909 H   0  0
   12.4282   -9.9998    2.3064 H   0  0
  1  5  2  0
  2  1  1  0
  2 40  1  0
  3  6  1  0
  3 41  1  0
  4  3  2  0
  5  9  1  0
  5 42  1  0
  6 20  2  0
  6 43  1  0
  7  4  1  0
  7 14  2  0
  8 13  1  0
  8 18  2  0
  9 12  2  0
  9 22  1  0
 10  2  2  0
 10 44  1  0
 11 19  1  0
 11 45  1  0
 11 46  1  0
 12 10  1  0
 12 47  1  0
 13 11  1  0
 13 48  1  0
 13 49  1  0
 14  8  1  0
 15 16  2  0
 15 50  1  0
 16  4  1  0
 16 51  1  0
 17 52  1  0
 17 53  1  0
 17 54  1  0
 18 17  1  0
 18 21  1  0
 19  1  1  0
 20 15  1  0
 20 55  1  0
 21  7  1  0
 22 56  1  0
 22 57  1  0
 23 22  1  0
 23 24  1  0
 23 58  1  0
 24 25  1  0
 24 59  1  0
 24 60  1  0
 25 26  1  0
 25 31  1  0
 26 27  1  0
 26 61  1  0
 26 62  1  0
 27 23  1  0
 27 28  1  0
 27 63  1  0
 28 29  2  0
 28 30  1  0
 30 64  1  0
 31 32  2  0
 31 33  1  0
 33 34  1  0
 34 35  2  0
 35 36  1  0
 35 65  1  0
 36 37  2  0
 36 66  1  0
 37 38  1  0
 37 67  1  0
 38 39  2  0
 38 68  1  0
 39 34  1  0
 39 69  1  0
M  END
> <Name>
CHEMBL3398438

> <Clean Energy>
71.277702

> <chembl_id>
CHEMBL3398438

> <chembl_pref_name>
None

> <efficacy>
0.355

> <Forcefield>
MMFF

> <ForcefieldBase>
MMFF

> <ForcefieldFFML>
<?xml version="1.0" encoding="UTF-8"?>
<!DOCTYPE ffml SYSTEM "Ffml.dtd">
<ffml version="1.0">
<forcefield name="MMFF" derivedFrom="MMFF" base="MMFF">
<atomTypes>
<atomType
name="C100"
element="C"
mass="12.011"
annotation=""/>
<atomType
name="N101"
element="N"
mass="14.007"
annotation=""/>
<atomType
name="O102"
element="O"
mass="16"
annotation=""/>
<atomType
name="H103"
element="H"
mass="1.008"
annotation=""/>
</atomTypes>
<parameters>
</parameters>
</forcefield>
</ffml>

> <Initial Potential Energy>
143.10845

> <Initial RMS Gradient>
28.96261

> <Minimization Criteria>
CONJUG> Minimization exiting with gradient tolerance ( 0.0100000) satisfied.

> <CHARMm Energy>
29.99296

> <Potential Energy>
29.99296

> <RMS Gradient>
0.00832

> <Bond Energy>
7.19508

> <Angle Energy>
26.30218

> <STRBend>
-0.7618

> <Dihedral Energy>
0.96686

> <OOPLane>
0.14174

> <Van der Waals Energy>
67.25389

> <Electrostatic Energy>
-71.10499

> <Hydrogen Bond Energy>
0

> <Solvation Free Energy>
0

> <HasGasteigerCharges>
true

> <REMARK99>
REMARK  99  MacroMolecule created from Mol2 file
REMARK  99  CHEMBL3398438
REMARK  99  PROTEIN
REMARK  99  GASTEIGER
REMARK  99
REMARK  99

$$$$
CHEMBL5173082
  SciTegic05292516403D

 64 64  0  0  0  0            999 V2000
   -8.4526    0.2122    0.8334 C   0  0
   -7.9343   -0.8782    1.5541 C   0  0
   -6.7811   -1.5372    1.1291 C   0  0
   -6.1243   -1.1215   -0.0302 C   0  0
   -6.6325   -0.0290   -0.7517 C   0  0
   -7.7920    0.6432   -0.3343 C   0  0
   -8.3312    1.7151   -1.0043 O   0  0
   -4.8644   -1.8186   -0.4844 C   0  0
   -3.6119   -1.1417    0.0766 C   0  0
   -2.3409   -1.8529   -0.3905 C   0  0
   -1.0874   -1.1736    0.1636 C   0  0
    0.1835   -1.8822   -0.3077 C   0  0
    1.4375   -1.1988    0.2400 C   0  0
    2.7083   -1.9048   -0.2354 C   0  0
    3.9627   -1.2178    0.3070 C   0  0
    5.2333   -1.9216   -0.1722 C   0  0
    6.4881   -1.2322    0.3661 C   0  0
    7.7588   -1.9348   -0.1152 C   0  0
    9.0136   -1.2443    0.4217 C   0  0
   10.2843   -1.9460   -0.0604 C   0  0
   11.5381   -1.2554    0.4756 C   0  0
   12.8037   -1.9500   -0.0010 C   0  0
   -7.6693    2.1592   -2.1869 C   0  0
   -9.6952    0.8353    1.3917 C   0  0
  -10.2302    0.4248    2.4108 O   0  0
  -10.1954    1.8815    0.7029 O   0  0
   -8.4319   -1.2211    2.4609 H   0  0
   -6.4020   -2.3748    1.7113 H   0  0
   -6.0932    0.2768   -1.6436 H   0  0
   -4.8967   -2.8709   -0.1745 H   0  0
   -4.8314   -1.8287   -1.5813 H   0  0
   -3.5818   -0.0915   -0.2403 H   0  0
   -3.6495   -1.1393    1.1734 H   0  0
   -2.3653   -2.9001   -0.0655 H   0  0
   -2.3033   -1.8549   -1.4866 H   0  0
   -1.0648   -0.1256   -0.1592 H   0  0
   -1.1233   -1.1736    1.2598 H   0  0
    0.1631   -2.9291    0.0186 H   0  0
    0.2167   -1.8859   -1.4040 H   0  0
    1.4561   -0.1512   -0.0844 H   0  0
    1.4061   -1.1972    1.3364 H   0  0
    2.6917   -2.9514    0.0921 H   0  0
    2.7374   -1.9094   -1.3318 H   0  0
    3.9778   -0.1706   -0.0188 H   0  0
    3.9352   -1.2151    1.4035 H   0  0
    5.2197   -2.9681    0.1559 H   0  0
    5.2591   -1.9268   -1.2687 H   0  0
    6.5010   -0.1853    0.0390 H   0  0
    6.4633   -1.2281    1.4626 H   0  0
    7.7465   -2.9814    0.2126 H   0  0
    7.7829   -1.9395   -1.2117 H   0  0
    9.0254   -0.1975    0.0944 H   0  0
    8.9899   -1.2400    1.5182 H   0  0
   10.2729   -2.9927    0.2672 H   0  0
   10.3081   -1.9510   -1.1570 H   0  0
   11.5565   -0.2096    0.1473 H   0  0
   11.5213   -1.2512    1.5717 H   0  0
   13.6877   -1.4400    0.3942 H   0  0
   12.8674   -1.9427   -1.0938 H   0  0
   12.8317   -2.9905    0.3381 H   0  0
   -7.6662    1.3775   -2.9534 H   0  0
   -6.6552    2.5062   -1.9638 H   0  0
   -8.2324    3.0101   -2.5820 H   0  0
   -9.6629    2.0988   -0.0904 H   0  0
  1  2  2  0
  1 24  1  0
  2  3  1  0
  2 27  1  0
  3  4  2  0
  3 28  1  0
  4  5  1  0
  4  8  1  0
  5  6  2  0
  5 29  1  0
  6  1  1  0
  6  7  1  0
  7 23  1  0
  8  9  1  0
  8 30  1  0
  8 31  1  0
  9 10  1  0
  9 32  1  0
  9 33  1  0
 10 11  1  0
 10 34  1  0
 10 35  1  0
 11 12  1  0
 11 36  1  0
 11 37  1  0
 12 13  1  0
 12 38  1  0
 12 39  1  0
 13 14  1  0
 13 40  1  0
 13 41  1  0
 14 15  1  0
 14 42  1  0
 14 43  1  0
 15 16  1  0
 15 44  1  0
 15 45  1  0
 16 17  1  0
 16 46  1  0
 16 47  1  0
 17 18  1  0
 17 48  1  0
 17 49  1  0
 18 19  1  0
 18 50  1  0
 18 51  1  0
 19 20  1  0
 19 52  1  0
 19 53  1  0
 20 21  1  0
 20 54  1  0
 20 55  1  0
 21 22  1  0
 21 56  1  0
 21 57  1  0
 22 58  1  0
 22 59  1  0
 22 60  1  0
 23 61  1  0
 23 62  1  0
 23 63  1  0
 24 25  2  0
 24 26  1  0
 26 64  1  0
M  END
> <Name>
CHEMBL5173082

> <Clean Energy>
14.0352

> <chembl_id>
CHEMBL5173082

> <chembl_pref_name>
None

> <efficacy>
0.3

> <Forcefield>
MMFF

> <ForcefieldBase>
MMFF

> <ForcefieldFFML>
<?xml version="1.0" encoding="UTF-8"?>
<!DOCTYPE ffml SYSTEM "Ffml.dtd">
<ffml version="1.0">
<forcefield name="MMFF" derivedFrom="MMFF" base="MMFF">
<atomTypes>
<atomType
name="C100"
element="C"
mass="12.011"
annotation=""/>
<atomType
name="O101"
element="O"
mass="16"
annotation=""/>
<atomType
name="H102"
element="H"
mass="1.008"
annotation=""/>
</atomTypes>
<parameters>
</parameters>
</forcefield>
</ffml>

> <Initial Potential Energy>
82.57962

> <Initial RMS Gradient>
19.62751

> <Minimization Criteria>
CONJUG> Minimization exiting with gradient tolerance ( 0.0100000) satisfied.

> <CHARMm Energy>
25.84578

> <Potential Energy>
25.84578

> <RMS Gradient>
0.00942

> <Bond Energy>
4.596

> <Angle Energy>
13.27528

> <STRBend>
0.60827

> <Dihedral Energy>
-23.90829

> <OOPLane>
0.00398

> <Van der Waals Energy>
46.0236

> <Electrostatic Energy>
-14.75305

> <Hydrogen Bond Energy>
0

> <Solvation Free Energy>
0

> <HasGasteigerCharges>
true

> <REMARK99>
REMARK  99  MacroMolecule created from Mol2 file
REMARK  99  CHEMBL5173082
REMARK  99  PROTEIN
REMARK  99  GASTEIGER
REMARK  99
REMARK  99

$$$$
CHEMBL511100
  SciTegic05292516403D

 73 76  0  0  0  0            999 V2000
    6.3429  -16.9551   -0.1238 C   0  0
    6.7606  -18.2726    0.0833 C   0  0
    8.0765  -18.6683   -0.1984 C   0  0
    9.0079  -17.7515   -0.7077 C   0  0
    8.5833  -16.4300   -0.9205 C   0  0
    7.2621  -16.0375   -0.6369 C   0  0
   10.4442  -18.1505   -0.9820 C   0  0
   10.9519  -17.5754   -2.1104 F   0  0
   10.6272  -19.4924   -1.1395 F   0  0
   11.2843  -17.7788    0.0263 F   0  0
    5.0357  -16.7025    0.2122 O   0  0
    4.6138  -15.3353    0.1866 C   0  0
    3.2019  -15.1790    0.7316 C   0  0
    2.8947  -14.1189    1.5843 C   0  0
    1.5805  -13.9240    2.0258 C   0  0
    0.5142  -14.7558    1.6137 C   0  0
    0.8324  -15.8817    0.8296 C   0  0
    2.1643  -16.0526    0.3736 C   0  0
   -1.0624  -14.2979    2.3188 S   0  0
   -2.0181  -13.3780    1.0983 C   0  0
   -4.0032  -11.8872   -0.2677 C   0  0
   -4.2861  -13.1667    0.1959 C   0  0
   -3.3144  -13.8858    0.8944 C   0  0
   -4.9595  -11.1253   -0.9028 O   0  0
   -6.1482  -10.9679   -0.1082 C   0  0
   -6.9375   -9.7537   -0.5612 C   0  0
   -6.4921   -9.1807   -1.7101 O   0  0
   -7.9058   -9.3034    0.0404 O   0  0
    0.0426  -16.9222    0.4108 O   0  0
   -1.1871  -17.2098    1.0776 C   0  0
   -1.6035  -18.5789    0.7144 C   0  0
   -2.4257   -9.9728   -0.6743 C   0  0
   -2.7088  -11.3556   -0.1197 C   0  0
   -1.6939  -12.1160    0.5392 C   0  0
   -0.3066  -11.5298    0.6912 C   0  0
   -0.0238  -10.2882   -0.1513 C   0  0
   -1.1868   -9.3204   -0.0763 C   0  0
   -1.9544  -19.6732    0.3610 C   0  0
   -2.3721  -20.9942   -0.1566 C   0  0
   -3.8755  -21.0240   -0.4393 C   0  0
   -4.1625  -20.0599   -1.4640 O   0  0
   -5.4844  -19.5388   -1.3734 C   0  0
    6.0490  -18.9976    0.4751 H   0  0
    8.3673  -19.7007   -0.0107 H   0  0
    9.2852  -15.6927   -1.3107 H   0  0
    6.9919  -15.0039   -0.8303 H   0  0
    5.2974  -14.7331    0.7983 H   0  0
    4.6184  -14.9627   -0.8451 H   0  0
    3.6794  -13.4410    1.9186 H   0  0
    1.3810  -13.0827    2.6937 H   0  0
    2.4039  -16.9196   -0.2474 H   0  0
   -5.2625  -13.6168    0.0506 H   0  0
   -3.6018  -14.8475    1.3166 H   0  0
   -6.7904  -11.8452   -0.2357 H   0  0
   -5.8901  -10.8122    0.9463 H   0  0
   -5.7237   -9.7110   -2.0285 H   0  0
   -1.0623  -17.1630    2.1643 H   0  0
   -1.9562  -16.5152    0.7347 H   0  0
   -2.3072  -10.0612   -1.7615 H   0  0
   -3.2763   -9.3070   -0.4859 H   0  0
   -0.1477  -11.2847    1.7480 H   0  0
    0.4291  -12.2734    0.3796 H   0  0
    0.8977   -9.8087    0.1974 H   0  0
    0.1456  -10.5794   -1.1962 H   0  0
   -0.9523   -8.4009   -0.6237 H   0  0
   -1.3718   -9.0386    0.9678 H   0  0
   -1.8207  -21.2003   -1.0814 H   0  0
   -2.1184  -21.7754    0.5678 H   0  0
   -4.1800  -22.0120   -0.7998 H   0  0
   -4.4341  -20.7926    0.4761 H   0  0
   -5.6432  -18.8544   -2.2110 H   0  0
   -5.6103  -18.9839   -0.4388 H   0  0
   -6.2168  -20.3493   -1.4348 H   0  0
  1  2  2  0
  1 11  1  0
  2  3  1  0
  2 43  1  0
  3  4  2  0
  3 44  1  0
  4  5  1  0
  4  7  1  0
  5  6  2  0
  5 45  1  0
  6  1  1  0
  6 46  1  0
  7  8  1  0
  7  9  1  0
  7 10  1  0
 11 12  1  0
 12 13  1  0
 12 47  1  0
 12 48  1  0
 13 14  2  0
 14 15  1  0
 14 49  1  0
 15 16  2  0
 15 50  1  0
 16 17  1  0
 16 19  1  0
 17 18  2  0
 17 29  1  0
 18 13  1  0
 18 51  1  0
 19 20  1  0
 20 34  2  0
 21 22  1  0
 21 24  1  0
 22 23  2  0
 22 52  1  0
 23 20  1  0
 23 53  1  0
 24 25  1  0
 25 26  1  0
 25 54  1  0
 25 55  1  0
 26 27  1  0
 26 28  2  0
 27 56  1  0
 29 30  1  0
 30 31  1  0
 30 57  1  0
 30 58  1  0
 31 38  3  0
 32 33  1  0
 32 37  1  0
 32 59  1  0
 32 60  1  0
 33 21  2  0
 33 34  1  0
 34 35  1  0
 35 36  1  0
 35 61  1  0
 35 62  1  0
 36 37  1  0
 36 63  1  0
 36 64  1  0
 37 65  1  0
 37 66  1  0
 38 39  1  0
 39 40  1  0
 39 67  1  0
 39 68  1  0
 40 41  1  0
 40 69  1  0
 40 70  1  0
 41 42  1  0
 42 71  1  0
 42 72  1  0
 42 73  1  0
M  END
> <Name>
CHEMBL511100

> <Clean Energy>
286.321014

> <chembl_id>
CHEMBL511100

> <chembl_pref_name>
None

> <efficacy>
0.38

> <Forcefield>
MMFF

> <ForcefieldBase>
MMFF

> <ForcefieldFFML>
<?xml version="1.0" encoding="UTF-8"?>
<!DOCTYPE ffml SYSTEM "Ffml.dtd">
<ffml version="1.0">
<forcefield name="MMFF" derivedFrom="MMFF" base="MMFF">
<atomTypes>
<atomType
name="C100"
element="C"
mass="12.011"
annotation=""/>
<atomType
name="F101"
element="F"
mass="18.998"
annotation=""/>
<atomType
name="O102"
element="O"
mass="16"
annotation=""/>
<atomType
name="S103"
element="S"
mass="32.066"
annotation=""/>
<atomType
name="H104"
element="H"
mass="1.008"
annotation=""/>
</atomTypes>
<parameters>
</parameters>
</forcefield>
</ffml>

> <Initial Potential Energy>
763.31057

> <Initial RMS Gradient>
60.05485

> <Minimization Criteria>
STEEPD> Minimization exiting with gradient tolerance ( 3.0000000) satisfied.

> <CHARMm Energy>
127.72234

> <Potential Energy>
127.72234

> <RMS Gradient>
0.06315

> <Bond Energy>
10.27658

> <Angle Energy>
33.08599

> <STRBend>
1.01661

> <Dihedral Energy>
7.28918

> <OOPLane>
0.27697

> <Van der Waals Energy>
74.56679

> <Electrostatic Energy>
1.21023

> <Hydrogen Bond Energy>
0

> <Solvation Free Energy>
0

> <HasGasteigerCharges>
true

> <REMARK99>
REMARK  99  MacroMolecule created from Mol2 file
REMARK  99  CHEMBL511100
REMARK  99  PROTEIN
REMARK  99  GASTEIGER
REMARK  99
REMARK  99

$$$$
CHEMBL3986047
  SciTegic05292516403D

 52 55  0  0  0  0            999 V2000
   17.7833  -13.8771    0.5620 C   0  0
   19.0204  -14.2287   -0.0188 C   0  0
   20.2207  -13.7402    0.5293 C   0  0
   20.2099  -12.9355    1.6675 C   0  0
   19.0002  -12.6057    2.2663 C   0  0
   17.8026  -13.0668    1.7167 C   0  0
   16.4752  -14.2607    0.0119 C   0  0
   16.0541  -13.7969   -1.2431 C   0  0
   14.7955  -14.1361   -1.7467 C   0  0
   13.9221  -14.9375   -0.9997 C   0  0
   14.3537  -15.4302    0.2401 C   0  0
   15.6090  -15.0863    0.7436 C   0  0
   19.1683  -15.1073   -1.2119 C   0  0
   20.0393  -14.8977   -2.0489 O   0  0
   18.3472  -16.1951   -1.3148 N   0  0
   12.5422  -15.2566   -1.5285 C   0  0
   11.4986  -14.9663   -0.5433 N   0  0
   11.1380  -13.7008   -0.1048 C   0  0
   10.2155  -13.8803    0.9087 C   0  0
    9.9593  -15.2667    1.0523 C   0  0
    9.1165  -16.0147    1.8983 C   0  0
    9.0965  -17.4086    1.7947 C   0  0
    9.8891  -18.0583    0.8574 C   0  0
   10.7346  -17.3355    0.0084 C   0  0
   10.7601  -15.9335    0.1231 C   0  0
   11.7383  -12.4313   -0.6408 C   0  0
   10.7875  -11.2341   -0.5616 C   0  0
   11.4072   -9.9923   -1.1849 C   0  0
   21.1710  -13.9993    0.0665 H   0  0
   21.1432  -12.5688    2.0844 H   0  0
   18.9801  -11.9793    3.1543 H   0  0
   16.8658  -12.7689    2.1871 H   0  0
   16.7055  -13.1551   -1.8355 H   0  0
   14.4975  -13.7478   -2.7185 H   0  0
   13.7018  -16.0610    0.8428 H   0  0
   15.9040  -15.4626    1.7216 H   0  0
   17.6380  -16.4333   -0.6370 H   0  0
   18.4849  -16.8004   -2.1135 H   0  0
   12.2999  -14.6750   -2.4250 H   0  0
   12.4963  -16.3118   -1.8114 H   0  0
    9.7652  -13.0880    1.4900 H   0  0
    8.4833  -15.5150    2.6267 H   0  0
    8.4500  -17.9856    2.4510 H   0  0
    9.8655  -19.1425    0.7854 H   0  0
   11.3459  -17.8648   -0.7145 H   0  0
   12.6521  -12.2102   -0.0758 H   0  0
   12.0270  -12.5649   -1.6889 H   0  0
    9.8475  -11.4642   -1.0779 H   0  0
   10.5358  -11.0150    0.4827 H   0  0
   10.7148   -9.1475   -1.1153 H   0  0
   11.6368  -10.1565   -2.2426 H   0  0
   12.3333   -9.7162   -0.6706 H   0  0
  1  2  1  0
  1  6  2  0
  1  7  1  0
  2  3  2  0
  2 13  1  0
  3  4  1  0
  3 29  1  0
  4  5  2  0
  4 30  1  0
  5  6  1  0
  5 31  1  0
  6 32  1  0
  7  8  1  0
  7 12  2  0
  8  9  2  0
  8 33  1  0
  9 10  1  0
  9 34  1  0
 10 11  2  0
 10 16  1  0
 11 12  1  0
 11 35  1  0
 12 36  1  0
 13 14  2  0
 13 15  1  0
 15 37  1  0
 15 38  1  0
 16 17  1  0
 16 39  1  0
 16 40  1  0
 17 18  1  0
 17 25  1  0
 18 19  2  0
 18 26  1  0
 19 20  1  0
 19 41  1  0
 20 21  1  0
 20 25  2  0
 21 22  2  0
 21 42  1  0
 22 23  1  0
 22 43  1  0
 23 24  2  0
 23 44  1  0
 24 25  1  0
 24 45  1  0
 26 27  1  0
 26 46  1  0
 26 47  1  0
 27 28  1  0
 27 48  1  0
 27 49  1  0
 28 50  1  0
 28 51  1  0
 28 52  1  0
M  END
> <Name>
CHEMBL3986047

> <Clean Energy>
46.489498

> <chembl_id>
CHEMBL3986047

> <chembl_pref_name>
None

> <efficacy>
0.104463438

> <Forcefield>
MMFF

> <ForcefieldBase>
MMFF

> <ForcefieldFFML>
<?xml version="1.0" encoding="UTF-8"?>
<!DOCTYPE ffml SYSTEM "Ffml.dtd">
<ffml version="1.0">
<forcefield name="MMFF" derivedFrom="MMFF" base="MMFF">
<atomTypes>
<atomType
name="C100"
element="C"
mass="12.011"
annotation=""/>
<atomType
name="O101"
element="O"
mass="16"
annotation=""/>
<atomType
name="N102"
element="N"
mass="14.007"
annotation=""/>
<atomType
name="H103"
element="H"
mass="1.008"
annotation=""/>
</atomTypes>
<parameters>
</parameters>
</forcefield>
</ffml>

> <Initial Potential Energy>
247.70478

> <Initial RMS Gradient>
39.45095

> <Minimization Criteria>
CONJUG> Minimization exiting with gradient tolerance ( 0.0100000) satisfied.

> <CHARMm Energy>
68.79988

> <Potential Energy>
68.79988

> <RMS Gradient>
0.0095

> <Bond Energy>
7.28079

> <Angle Energy>
7.41037

> <STRBend>
-0.1777

> <Dihedral Energy>
6.42217

> <OOPLane>
0.10328

> <Van der Waals Energy>
55.61359

> <Electrostatic Energy>
-7.85262

> <Hydrogen Bond Energy>
0

> <Solvation Free Energy>
0

> <HasGasteigerCharges>
true

> <REMARK99>
REMARK  99  MacroMolecule created from Mol2 file
REMARK  99  CHEMBL3986047
REMARK  99  PROTEIN
REMARK  99  GASTEIGER
REMARK  99
REMARK  99

$$$$
CHEMBL359476
  SciTegic05292516403D

 58 61  0  0  0  0            999 V2000
   -1.1318   -1.6118    0.6699 N   0  0
   -0.0044   -0.9319    1.1514 C   0  0
   -0.2177    0.4342    1.0394 C   0  0
   -2.0145   -0.6573    0.1376 C   0  0
   -1.4893    0.6063    0.4209 C   0  0
   -1.3354   -3.0217    0.7173 C   0  0
    7.0799    3.1511   -1.1304 C   0  0
   -3.2156   -0.7690   -0.5939 C   0  0
    0.6858    1.5471    1.4797 C   0  0
   -2.6076   -3.7155    0.4622 C   0  0
   -2.2063    1.7588    0.0306 C   0  0
    5.2345    2.8154    0.4206 O   0  0
    6.0038    3.8115   -0.2743 C   0  0  1  0  0  0
   -0.3833   -3.7487    1.0007 O   0  0
    7.7830    3.7509   -1.9329 O   0  0
    4.0138    2.5025   -0.1117 C   0  0
    1.7302    1.8056    0.4115 C   0  0
   -2.6578   -4.6596   -0.5695 C   0  0
   -3.7238   -3.4798    1.2727 C   0  0
    3.0309    2.1478    0.8177 C   0  0
    1.1909   -1.6338    1.7127 C   0  0
   -3.4013    1.6530   -0.6764 C   0  0
   -3.8940    0.3951   -0.9884 C   0  0
    7.2344    1.8254   -0.8820 O   0  0
   -4.9698   -5.0927   -0.0269 C   0  0
   -4.9115   -4.1692    1.0189 C   0  0
   -3.8482   -5.3429   -0.8192 C   0  0
   -6.4377   -5.9340   -0.3369 Cl  0  0
   -3.9603    2.8526   -1.0165 O   0  0
    2.4376    2.1495   -1.8959 C   0  0
    3.7248    2.4745   -1.4727 C   0  0
    1.4464    1.8371   -0.9631 C   0  0
    6.6770    4.6788    0.7809 C   0  0
   -5.2220    2.8086   -1.6719 C   0  0
   -3.6374   -1.7252   -0.8880 H   0  0
    0.1254    2.4713    1.6599 H   0  0
    1.1600    1.2739    2.4300 H   0  0
   -1.8068    2.7468    0.2458 H   0  0
    5.3731    4.4430   -0.9114 H   0  0
   -1.7734   -4.8608   -1.1718 H   0  0
   -3.6817   -2.7725    2.0979 H   0  0
    3.2834    2.1697    1.8767 H   0  0
    1.9539   -0.9230    2.0440 H   0  0
    1.6578   -2.2713    0.9555 H   0  0
    0.9159   -2.2377    2.5832 H   0  0
   -4.8178    0.2705   -1.5482 H   0  0
    6.5571    1.5369   -0.2297 H   0  0
   -5.7847   -3.9879    1.6410 H   0  0
   -3.8918   -6.0710   -1.6249 H   0  0
    2.2038    2.1491   -2.9582 H   0  0
    4.4722    2.6923   -2.2284 H   0  0
    0.4494    1.6121   -1.3346 H   0  0
    5.9269    5.1503    1.4248 H   0  0
    7.2897    5.4621    0.3235 H   0  0
    7.3223    4.0768    1.4309 H   0  0
   -5.5513    3.8397   -1.8325 H   0  0
   -5.9744    2.3114   -1.0506 H   0  0
   -5.1387    2.3290   -2.6526 H   0  0
  2  1  1  0
  3  2  2  0
  3  5  1  0
  4  1  1  0
  5  4  1  0
  6  1  1  0
  7 13  1  0
  8  4  2  0
  8 35  1  0
  9  3  1  0
  9 36  1  0
  9 37  1  0
 10  6  1  0
 11  5  2  0
 11 38  1  0
 12 16  1  0
 13 12  1  0
 13 39  1  0
 14  6  2  0
 15  7  2  0
 16 20  2  0
 17  9  1  0
 18 10  1  0
 18 40  1  0
 19 10  2  0
 19 41  1  0
 20 17  1  0
 20 42  1  0
 21  2  1  0
 21 43  1  0
 21 44  1  0
 21 45  1  0
 22 11  1  0
 22 23  2  0
 23  8  1  0
 23 46  1  0
 24  7  1  0
 24 47  1  0
 25 26  2  0
 25 27  1  0
 26 19  1  0
 26 48  1  0
 27 18  2  0
 27 49  1  0
 28 25  1  0
 29 22  1  0
 30 32  1  0
 30 50  1  0
 31 16  1  0
 31 30  2  0
 31 51  1  0
 32 17  2  0
 32 52  1  0
 33 13  1  0
 33 53  1  0
 33 54  1  0
 33 55  1  0
 34 29  1  0
 34 56  1  0
 34 57  1  0
 34 58  1  0
M  END
> <Name>
CHEMBL359476

> <Clean Energy>
55.007198

> <chembl_id>
CHEMBL359476

> <chembl_pref_name>
None

> <efficacy>
0.42

> <Forcefield>
MMFF

> <ForcefieldBase>
MMFF

> <ForcefieldFFML>
<?xml version="1.0" encoding="UTF-8"?>
<!DOCTYPE ffml SYSTEM "Ffml.dtd">
<ffml version="1.0">
<forcefield name="MMFF" derivedFrom="MMFF" base="MMFF">
<atomTypes>
<atomType
name="N100"
element="N"
mass="14.007"
annotation=""/>
<atomType
name="C101"
element="C"
mass="12.011"
annotation=""/>
<atomType
name="O102"
element="O"
mass="16"
annotation=""/>
<atomType
name="Cl103"
element="Cl"
mass="35.453"
annotation=""/>
<atomType
name="H104"
element="H"
mass="1.008"
annotation=""/>
</atomTypes>
<parameters>
</parameters>
</forcefield>
</ffml>

> <Initial Potential Energy>
499.64721

> <Initial RMS Gradient>
171.24154

> <Minimization Criteria>
CONJUG> Minimization exiting with gradient tolerance ( 0.0100000) satisfied.

> <CHARMm Energy>
124.97434

> <Potential Energy>
124.97434

> <RMS Gradient>
0.00963

> <Bond Energy>
8.36404

> <Angle Energy>
20.31738

> <STRBend>
-0.13326

> <Dihedral Energy>
10.32902

> <OOPLane>
0.15122

> <Van der Waals Energy>
68.15212

> <Electrostatic Energy>
17.79382

> <Hydrogen Bond Energy>
0

> <Solvation Free Energy>
0

> <HasGasteigerCharges>
true

> <REMARK99>
REMARK  99  MacroMolecule created from Mol2 file
REMARK  99  CHEMBL359476
REMARK  99  PROTEIN
REMARK  99  GASTEIGER
REMARK  99
REMARK  99

$$$$
CHEMBL5071964
  SciTegic05292516403D

 53 56  0  0  0  0            999 V2000
   11.0207   -7.9129    1.1829 F   0  0
   10.9055   -9.2141    1.5666 C   0  0
   11.9891   -9.4843    2.3473 F   0  0
    9.6768  -11.0080    0.2924 C   0  0
    9.5172  -11.8832   -0.7814 C   0  0
   10.4947  -11.9242   -1.7724 C   0  0
   11.6207  -11.1049   -1.6941 C   0  0
   11.7999  -10.2221   -0.6141 C   0  0
   10.8052  -10.1627    0.3887 C   0  0
    9.8237   -9.2522    2.3988 F   0  0
   13.0456   -9.3653   -0.5924 C   0  0
   14.2389  -10.1791   -0.5579 N   0  0
   15.4786   -9.6067   -0.7367 C   0  0
   16.6430  -10.5307   -0.6706 C   0  0
   15.6443   -8.4042   -0.9067 O   0  0
   16.5727  -11.8439   -1.1466 C   0  0
   17.6807  -12.6993   -1.0700 C   0  0
   17.8367  -10.0383   -0.1274 C   0  0
   18.9555  -10.8878   -0.0264 C   0  0
   18.8625  -12.2022   -0.4950 C   0  0
   20.0872  -12.8018   -0.2508 N   0  0
   20.9426  -11.8970    0.3307 C   0  0
   20.2676  -10.7099    0.4855 C   0  0
   20.4583  -14.1844   -0.5645 C   0  0
   19.7053  -15.2206    0.2445 C   0  0
   19.1804  -14.9704    1.5238 C   0  0
   18.5152  -15.9726    2.2387 C   0  0
   18.3961  -17.2509    1.7005 C   0  0
   18.9327  -17.5152    0.4476 C   0  0
   19.5729  -16.5158   -0.2816 C   0  0
    8.4653  -12.7335   -0.9779 O   0  0
    7.4309  -12.7215   -0.0025 C   0  0
   18.8412  -18.7510   -0.0648 F   0  0
    8.9282  -10.9579    1.0784 H   0  0
   10.3761  -12.5972   -2.6186 H   0  0
   12.3636  -11.1556   -2.4894 H   0  0
   13.0684   -8.7300   -1.4863 H   0  0
   13.0876   -8.6984    0.2724 H   0  0
   14.1628  -11.1477   -0.2783 H   0  0
   15.6619  -12.2176   -1.6075 H   0  0
   17.6178  -13.7178   -1.4412 H   0  0
   17.8996   -9.0116    0.2253 H   0  0
   21.9577  -12.1705    0.5909 H   0  0
   20.6643   -9.8043    0.9253 H   0  0
   20.2664  -14.3104   -1.6368 H   0  0
   21.5341  -14.2961   -0.3885 H   0  0
   19.2461  -13.9798    1.9737 H   0  0
   18.0820  -15.7431    3.2100 H   0  0
   17.8998  -18.0461    2.2474 H   0  0
   19.9683  -16.7626   -1.2621 H   0  0
    6.6725  -13.4477   -0.3104 H   0  0
    6.9494  -11.7395    0.0505 H   0  0
    7.8093  -13.0307    0.9774 H   0  0
  2  1  1  0
  2 10  1  0
  3  2  1  0
  4  5  2  0
  4 34  1  0
  5  6  1  0
  5 31  1  0
  6  7  2  0
  6 35  1  0
  7  8  1  0
  7 36  1  0
  8  9  2  0
  8 11  1  0
  9  2  1  0
  9  4  1  0
 11 12  1  0
 11 37  1  0
 11 38  1  0
 12 13  1  0
 12 39  1  0
 13 14  1  0
 13 15  2  0
 14 16  2  0
 16 17  1  0
 16 40  1  0
 17 20  2  0
 17 41  1  0
 18 14  1  0
 18 42  1  0
 19 18  2  0
 19 20  1  0
 20 21  1  0
 21 22  1  0
 21 24  1  0
 22 23  2  0
 22 43  1  0
 23 19  1  0
 23 44  1  0
 24 25  1  0
 24 45  1  0
 24 46  1  0
 25 26  2  0
 26 27  1  0
 26 47  1  0
 27 28  2  0
 27 48  1  0
 28 29  1  0
 28 49  1  0
 29 30  2  0
 29 33  1  0
 30 25  1  0
 30 50  1  0
 31 32  1  0
 32 51  1  0
 32 52  1  0
 32 53  1  0
M  END
> <Name>
CHEMBL5071964

> <Clean Energy>
47.4165

> <chembl_id>
CHEMBL5071964

> <chembl_pref_name>
None

> <efficacy>
0.351377018

> <Forcefield>
MMFF

> <ForcefieldBase>
MMFF

> <ForcefieldFFML>
<?xml version="1.0" encoding="UTF-8"?>
<!DOCTYPE ffml SYSTEM "Ffml.dtd">
<ffml version="1.0">
<forcefield name="MMFF" derivedFrom="MMFF" base="MMFF">
<atomTypes>
<atomType
name="F100"
element="F"
mass="18.998"
annotation=""/>
<atomType
name="C101"
element="C"
mass="12.011"
annotation=""/>
<atomType
name="N102"
element="N"
mass="14.007"
annotation=""/>
<atomType
name="O103"
element="O"
mass="16"
annotation=""/>
<atomType
name="H104"
element="H"
mass="1.008"
annotation=""/>
</atomTypes>
<parameters>
</parameters>
</forcefield>
</ffml>

> <Initial Potential Energy>
457.44004

> <Initial RMS Gradient>
212.42029

> <Minimization Criteria>
CONJUG> Minimization exiting with gradient tolerance ( 0.0100000) satisfied.

> <CHARMm Energy>
66.41023

> <Potential Energy>
66.41023

> <RMS Gradient>
0.00899

> <Bond Energy>
6.87815

> <Angle Energy>
12.17844

> <STRBend>
0.09368

> <Dihedral Energy>
1.78971

> <OOPLane>
0.09607

> <Van der Waals Energy>
59.99549

> <Electrostatic Energy>
-14.62131

> <Hydrogen Bond Energy>
0

> <Solvation Free Energy>
0

> <HasGasteigerCharges>
true

> <REMARK99>
REMARK  99  MacroMolecule created from Mol2 file
REMARK  99  CHEMBL5071964
REMARK  99  PROTEIN
REMARK  99  GASTEIGER
REMARK  99
REMARK  99

$$$$
CHEMBL452299
  SciTegic05292516403D

 57 60  0  0  0  0            999 V2000
    6.1528    2.3342    0.5642 C   0  0
    5.7899    1.0236    0.8302 C   0  0
    6.6689   -0.0007    0.4897 C   0  0
    7.3162    2.7296   -0.0004 N   0  0
    8.1384    1.7059   -0.3231 C   0  0
    7.8856    0.3520   -0.1198 C   0  0
    9.0238   -0.3654   -0.5834 C   0  0
    9.8808    0.5553   -1.1823 C   0  0
    9.3876    1.8187   -0.8976 N   0  0
   11.1242    0.3108   -1.9692 C   0  0
   10.0624    3.0890   -1.1661 C   0  0
   11.3594    3.2192   -0.3897 C   0  0
   12.6065    3.1952   -1.0435 C   0  0
   13.8126    3.2551   -0.3290 C   0  0
   13.7682    3.3800    1.0575 C   0  0
   12.5363    3.4288    1.7194 C   0  0
   11.3410    3.3446    1.0041 C   0  0
    9.2514   -1.8003   -0.4706 C   0  0
    8.4017   -2.6329   -0.7730 O   0  0
   10.5609   -2.2429    0.0807 C   0  0
   11.1470   -3.4134   -0.4087 C   0  0
   12.3950   -3.8244    0.0709 C   0  0
   13.0533   -3.0710    1.0456 C   0  0
   12.4491   -1.9207    1.5555 C   0  0
   11.2068   -1.5052    1.0809 C   0  0
   14.9404    3.1642   -1.1014 O   0  0
   16.2363    3.2693   -0.4785 C   0  0  1  0  0  0
   17.2631    2.5852   -1.3955 C   0  0
   16.6167    4.7352   -0.3161 C   0  0
   16.6890    1.9065   -2.4209 O   0  0
   18.4790    2.6290   -1.2412 O   0  0
   14.2760   -3.3472    1.5866 O   0  0
   15.0036   -4.4165    0.9990 C   0  0
    5.4723    3.1439    0.8201 H   0  0
    4.8312    0.8010    1.2883 H   0  0
    6.4095   -1.0406    0.6712 H   0  0
   11.2449    1.0464   -2.7696 H   0  0
   11.0901   -0.6714   -2.4522 H   0  0
   12.0055    0.3375   -1.3223 H   0  0
   10.2308    3.1386   -2.2478 H   0  0
    9.3937    3.9158   -0.9039 H   0  0
   12.6434    3.1082   -2.1278 H   0  0
   14.6646    3.4445    1.6649 H   0  0
   12.5082    3.5267    2.8026 H   0  0
   10.3933    3.3717    1.5409 H   0  0
   10.6428   -3.9986   -1.1741 H   0  0
   12.8241   -4.7352   -0.3356 H   0  0
   12.9543   -1.3416    2.3250 H   0  0
   10.7593   -0.6061    1.4976 H   0  0
   16.2700    2.7131    0.4644 H   0  0
   17.6170    4.8424    0.1153 H   0  0
   15.9068    5.2639    0.3271 H   0  0
   16.6079    5.2476   -1.2851 H   0  0
   15.7172    2.0344   -2.3932 H   0  0
   15.9814   -4.4641    1.4881 H   0  0
   15.1750   -4.2436   -0.0688 H   0  0
   14.5010   -5.3743    1.1691 H   0  0
  1  2  2  0
  1 34  1  0
  2  3  1  0
  2 35  1  0
  3  6  2  0
  3 36  1  0
  4  1  1  0
  5  4  2  0
  5  6  1  0
  6  7  1  0
  7  8  2  0
  7 18  1  0
  8  9  1  0
  8 10  1  0
  9  5  1  0
  9 11  1  0
 10 37  1  0
 10 38  1  0
 10 39  1  0
 11 12  1  0
 11 40  1  0
 11 41  1  0
 12 13  2  0
 13 14  1  0
 13 42  1  0
 14 15  2  0
 14 26  1  0
 15 16  1  0
 15 43  1  0
 16 17  2  0
 16 44  1  0
 17 12  1  0
 17 45  1  0
 18 19  2  0
 18 20  1  0
 20 21  2  0
 21 22  1  0
 21 46  1  0
 22 23  2  0
 22 47  1  0
 23 24  1  0
 23 32  1  0
 24 25  2  0
 24 48  1  0
 25 20  1  0
 25 49  1  0
 26 27  1  0
 27 28  1  0
 27 29  1  0
 27 50  1  0
 28 30  1  0
 28 31  2  0
 29 51  1  0
 29 52  1  0
 29 53  1  0
 30 54  1  0
 32 33  1  0
 33 55  1  0
 33 56  1  0
 33 57  1  0
M  END
> <Name>
CHEMBL452299

> <Clean Energy>
89.394501

> <chembl_id>
CHEMBL452299

> <chembl_pref_name>
None

> <efficacy>
0.23

> <Forcefield>
MMFF

> <ForcefieldBase>
MMFF

> <ForcefieldFFML>
<?xml version="1.0" encoding="UTF-8"?>
<!DOCTYPE ffml SYSTEM "Ffml.dtd">
<ffml version="1.0">
<forcefield name="MMFF" derivedFrom="MMFF" base="MMFF">
<atomTypes>
<atomType
name="C100"
element="C"
mass="12.011"
annotation=""/>
<atomType
name="N101"
element="N"
mass="14.007"
annotation=""/>
<atomType
name="O102"
element="O"
mass="16"
annotation=""/>
<atomType
name="H103"
element="H"
mass="1.008"
annotation=""/>
</atomTypes>
<parameters>
</parameters>
</forcefield>
</ffml>

> <Initial Potential Energy>
339.97635

> <Initial RMS Gradient>
42.53147

> <Minimization Criteria>
STEEPD> Minimization exiting with gradient tolerance ( 3.0000000) satisfied.

> <CHARMm Energy>
113.97091

> <Potential Energy>
113.97091

> <RMS Gradient>
0.0171

> <Bond Energy>
6.39675

> <Angle Energy>
18.83114

> <STRBend>
0.95336

> <Dihedral Energy>
8.39438

> <OOPLane>
0.0405

> <Van der Waals Energy>
64.42008

> <Electrostatic Energy>
14.9347

> <Hydrogen Bond Energy>
0

> <Solvation Free Energy>
0

> <HasGasteigerCharges>
true

> <REMARK99>
REMARK  99  MacroMolecule created from Mol2 file
REMARK  99  CHEMBL452299
REMARK  99  PROTEIN
REMARK  99  GASTEIGER
REMARK  99
REMARK  99

$$$$
CHEMBL4103575
  SciTegic05292516403D

 47 49  0  0  0  0            999 V2000
   39.1696   -2.1847   -1.5549 C   0  0
   38.6991   -1.4263   -0.3019 C   0  0
   39.3213   -2.1173    0.9299 C   0  0
   34.4795   -5.4269    2.4498 O   0  0
   34.7460   -5.3056    1.0292 S   0  0
   36.0738   -5.4723    0.4722 O   0  0
   30.4131   -2.0580    0.7048 C   0  0
   30.5320   -3.3022    1.3113 C   0  0
   31.7650   -3.9593    1.3629 C   0  0
   31.5278   -1.4210    0.1535 C   0  0
   32.7834   -2.0635    0.1999 C   0  0
   32.8826   -3.3311    0.7815 C   0  0
   34.2004   -3.7294    0.6183 N   0  0
   34.9770   -2.6949    0.1103 C   0  0
   34.0893   -1.6829   -0.2171 C   0  0
   33.6872   -6.4208    0.1440 C   0  0
   33.4464   -6.2236   -1.2181 C   0  0
   32.6040   -7.1050   -1.8972 C   0  0
   32.0165   -8.1753   -1.2200 C   0  0
   32.2730   -8.3748    0.1385 C   0  0
   33.1135   -7.5000    0.8247 C   0  0
   36.4753   -2.7529   -0.0155 C   0  0
   37.1493   -1.3834   -0.1970 C   0  0
   28.8692   -1.2928    0.6414 Cl  0  0
   39.2247    0.0170   -0.3403 C   0  0
   39.8610    0.5476    0.5601 O   0  0
   38.9260    0.7041   -1.4669 O   0  0
   39.0001   -3.2629   -1.4620 H   0  0
   40.2415   -2.0323   -1.7268 H   0  0
   38.6441   -1.8509   -2.4558 H   0  0
   38.9563   -1.6696    1.8615 H   0  0
   40.4139   -2.0220    0.9270 H   0  0
   39.0951   -3.1882    0.9584 H   0  0
   29.6623   -3.7768    1.7569 H   0  0
   31.8335   -4.9254    1.8553 H   0  0
   31.4326   -0.4376   -0.2978 H   0  0
   34.3501   -0.7327   -0.6674 H   0  0
   33.9096   -5.4040   -1.7615 H   0  0
   32.4164   -6.9536   -2.9571 H   0  0
   31.3595   -8.8648   -1.7499 H   0  0
   31.8168   -9.2168    0.6574 H   0  0
   33.3243   -7.6529    1.8807 H   0  0
   36.8724   -3.2035    0.8993 H   0  0
   36.7257   -3.3960   -0.8659 H   0  0
   36.7430   -0.9006   -1.0956 H   0  0
   36.8667   -0.7316    0.6418 H   0  0
   38.4110    0.2091   -2.1287 H   0  0
  1 28  1  0
  1 29  1  0
  1 30  1  0
  2  1  1  0
  2 25  1  0
  3  2  1  0
  3 31  1  0
  3 32  1  0
  3 33  1  0
  5  4  2  0
  5 16  1  0
  6  5  2  0
  7  8  2  0
  7 24  1  0
  8  9  1  0
  8 34  1  0
  9 12  2  0
  9 35  1  0
 10  7  1  0
 10 36  1  0
 11 10  2  0
 11 12  1  0
 12 13  1  0
 13  5  1  0
 13 14  1  0
 14 15  2  0
 14 22  1  0
 15 11  1  0
 15 37  1  0
 16 17  2  0
 17 18  1  0
 17 38  1  0
 18 19  2  0
 18 39  1  0
 19 20  1  0
 19 40  1  0
 20 21  2  0
 20 41  1  0
 21 16  1  0
 21 42  1  0
 22 23  1  0
 22 43  1  0
 22 44  1  0
 23  2  1  0
 23 45  1  0
 23 46  1  0
 25 26  2  0
 25 27  1  0
 27 47  1  0
M  END
> <Name>
CHEMBL4103575

> <Clean Energy>
47.6562

> <chembl_id>
CHEMBL4103575

> <chembl_pref_name>
None

> <efficacy>
0.32

> <Forcefield>
MMFF

> <ForcefieldBase>
MMFF

> <ForcefieldFFML>
<?xml version="1.0" encoding="UTF-8"?>
<!DOCTYPE ffml SYSTEM "Ffml.dtd">
<ffml version="1.0">
<forcefield name="MMFF" derivedFrom="MMFF" base="MMFF">
<atomTypes>
<atomType
name="C100"
element="C"
mass="12.011"
annotation=""/>
<atomType
name="O101"
element="O"
mass="16"
annotation=""/>
<atomType
name="S102"
element="S"
mass="32.066"
annotation=""/>
<atomType
name="N103"
element="N"
mass="14.007"
annotation=""/>
<atomType
name="Cl104"
element="Cl"
mass="35.453"
annotation=""/>
<atomType
name="H105"
element="H"
mass="1.008"
annotation=""/>
</atomTypes>
<parameters>
</parameters>
</forcefield>
</ffml>

> <Initial Potential Energy>
485.55209

> <Initial RMS Gradient>
211.34889

> <Minimization Criteria>
STEEPD> Minimization exiting with gradient tolerance ( 3.0000000) satisfied.

> <CHARMm Energy>
115.49093

> <Potential Energy>
115.49093

> <RMS Gradient>
0.03075

> <Bond Energy>
6.01887

> <Angle Energy>
12.11459

> <STRBend>
1.20745

> <Dihedral Energy>
-2.26058

> <OOPLane>
0.00656

> <Van der Waals Energy>
44.58904

> <Electrostatic Energy>
53.815

> <Hydrogen Bond Energy>
0

> <Solvation Free Energy>
0

> <HasGasteigerCharges>
true

> <REMARK99>
REMARK  99  MacroMolecule created from Mol2 file
REMARK  99  CHEMBL4103575
REMARK  99  PROTEIN
REMARK  99  GASTEIGER
REMARK  99
REMARK  99

$$$$
CHEMBL1956369
  SciTegic05292516403D

 35 36  0  0  0  0            999 V2000
   -5.5763  -18.6974    0.3101 C   0  0
   -5.3794  -19.5776    1.3707 C   0  0
   -4.0931  -19.8043    1.8476 C   0  0
   -3.0013  -19.1489    1.2718 C   0  0
   -3.1881  -18.2511    0.2180 C   0  0
   -4.4869  -18.0265   -0.2745 C   0  0
   -2.1862  -17.5802   -0.4292 O   0  0
   -0.9135  -17.3983    0.2110 C   0  0  1  0  0  0
    0.1692  -18.1594   -0.5677 C   0  0
    0.1748  -19.6409   -0.2718 C   0  0
   -0.5650  -20.5299   -1.0626 C   0  0
   -0.5706  -21.8878   -0.7596 C   0  0
    0.1494  -22.3847    0.3199 C   0  0
    0.8904  -21.5095    1.1116 C   0  0
    0.9029  -20.1433    0.8182 C   0  0
   -0.5628  -15.9098    0.1580 C   0  0
   -1.4830  -15.1345   -0.4612 O   0  0
    0.4640  -15.4405    0.6315 O   0  0
   -1.2849  -22.7291   -1.5186 F   0  0
   -4.7182  -17.0984   -1.4389 C   0  0
   -4.4331  -17.6771   -2.6374 F   0  0
   -6.0032  -16.6549   -1.5337 F   0  0
   -3.9472  -15.9694   -1.3778 F   0  0
   -6.5866  -18.5364   -0.0648 H   0  0
   -6.2258  -20.0946    1.8170 H   0  0
   -3.9338  -20.5053    2.6643 H   0  0
   -2.0182  -19.3934    1.6602 H   0  0
   -0.9309  -17.6486    1.2769 H   0  0
    0.0298  -18.0133   -1.6474 H   0  0
    1.1683  -17.7651   -0.3408 H   0  0
   -1.1459  -20.1799   -1.9114 H   0  0
    0.1309  -23.4485    0.5340 H   0  0
    1.4614  -21.8904    1.9549 H   0  0
    1.4901  -19.4734    1.4447 H   0  0
   -2.2515  -15.6546   -0.7884 H   0  0
  1  2  2  0
  1 24  1  0
  2  3  1  0
  2 25  1  0
  3  4  2  0
  3 26  1  0
  4  5  1  0
  4 27  1  0
  5  6  2  0
  5  7  1  0
  6  1  1  0
  6 20  1  0
  7  8  1  0
  8  9  1  0
  8 16  1  0
  8 28  1  0
  9 10  1  0
  9 29  1  0
  9 30  1  0
 10 11  2  0
 11 12  1  0
 11 31  1  0
 12 13  2  0
 12 19  1  0
 13 14  1  0
 13 32  1  0
 14 15  2  0
 14 33  1  0
 15 10  1  0
 15 34  1  0
 16 17  1  0
 16 18  2  0
 17 35  1  0
 20 21  1  0
 20 22  1  0
 20 23  1  0
M  END
> <Name>
CHEMBL1956369

> <Clean Energy>
26.626499

> <chembl_id>
CHEMBL1956369

> <chembl_pref_name>
None

> <efficacy>
0.189933523

> <Forcefield>
MMFF

> <ForcefieldBase>
MMFF

> <ForcefieldFFML>
<?xml version="1.0" encoding="UTF-8"?>
<!DOCTYPE ffml SYSTEM "Ffml.dtd">
<ffml version="1.0">
<forcefield name="MMFF" derivedFrom="MMFF" base="MMFF">
<atomTypes>
<atomType
name="C100"
element="C"
mass="12.011"
annotation=""/>
<atomType
name="O101"
element="O"
mass="16"
annotation=""/>
<atomType
name="F102"
element="F"
mass="18.998"
annotation=""/>
<atomType
name="H103"
element="H"
mass="1.008"
annotation=""/>
</atomTypes>
<parameters>
</parameters>
</forcefield>
</ffml>

> <Initial Potential Energy>
155.73396

> <Initial RMS Gradient>
33.25849

> <Minimization Criteria>
CONJUG> Minimization exiting with gradient tolerance ( 0.0100000) satisfied.

> <CHARMm Energy>
64.85407

> <Potential Energy>
64.85407

> <RMS Gradient>
0.0059

> <Bond Energy>
3.87278

> <Angle Energy>
10.13198

> <STRBend>
0.31269

> <Dihedral Energy>
1.33166

> <OOPLane>
0.02146

> <Van der Waals Energy>
38.68487

> <Electrostatic Energy>
10.49863

> <Hydrogen Bond Energy>
0

> <Solvation Free Energy>
0

> <HasGasteigerCharges>
true

> <REMARK99>
REMARK  99  MacroMolecule created from Mol2 file
REMARK  99  CHEMBL1956369
REMARK  99  PROTEIN
REMARK  99  GASTEIGER
REMARK  99
REMARK  99

$$$$
CHEMBL451321
  SciTegic05292516403D

 32 33  0  0  0  0            999 V2000
    2.1658    1.2958   -0.2203 C   0  0
    1.9172    0.1351   -0.9648 C   0  0
    2.9327   -0.7995   -1.1713 C   0  0
    4.2099   -0.5818   -0.6500 C   0  0
    4.4789    0.5831    0.0663 C   0  0
    3.4553    1.5060    0.2943 C   0  0
    1.0870    2.3248    0.0090 C   0  0
    1.0170    2.7277    1.3081 F   0  0
    1.2898    3.4545   -0.7228 F   0  0
   -0.1617    1.8862   -0.3131 F   0  0
    5.6833    0.9050    0.6303 O   0  0
    6.8685    0.4124   -0.0315 C   0  0  1  0  0  0
    7.9279    1.5140   -0.0250 C   0  0
    7.3026   -0.8575    0.7164 C   0  0
    6.8380   -0.9265    1.9910 O   0  0
    8.0075   -1.7356    0.2361 O   0  0
    9.3022    1.2172   -0.0681 C   0  0
   10.2577    2.2381   -0.1141 C   0  0
    9.8498    3.5680   -0.1388 C   0  0
    8.4968    3.8879   -0.1188 C   0  0
    7.5434    2.8680   -0.0709 C   0  0
   11.0205    4.8237   -0.2119 Cl  0  0
    0.9281   -0.0503   -1.3827 H   0  0
    2.7288   -1.7052   -1.7385 H   0  0
    4.9609   -1.3498   -0.8120 H   0  0
    3.6643    2.4066    0.8707 H   0  0
    6.6691    0.1604   -1.0807 H   0  0
    6.2638   -0.1533    2.1853 H   0  0
    9.6585    0.1875   -0.0750 H   0  0
   11.3149    1.9859   -0.1392 H   0  0
    8.1763    4.9260   -0.1484 H   0  0
    6.4913    3.1475   -0.0766 H   0  0
  1  2  2  0
  1  7  1  0
  2  3  1  0
  2 23  1  0
  3  4  2  0
  3 24  1  0
  4  5  1  0
  4 25  1  0
  5  6  2  0
  5 11  1  0
  6  1  1  0
  6 26  1  0
  7  8  1  0
  7  9  1  0
  7 10  1  0
 11 12  1  0
 12 13  1  0
 12 14  1  0
 12 27  1  0
 13 17  2  0
 14 15  1  0
 14 16  2  0
 15 28  1  0
 17 18  1  0
 17 29  1  0
 18 19  2  0
 18 30  1  0
 19 20  1  0
 19 22  1  0
 20 21  2  0
 20 31  1  0
 21 13  1  0
 21 32  1  0
M  END
> <Name>
CHEMBL451321

> <Clean Energy>
23.7679

> <chembl_id>
CHEMBL451321

> <chembl_pref_name>
METAGLIDASEN

> <efficacy>
0.12345679

> <Forcefield>
MMFF

> <ForcefieldBase>
MMFF

> <ForcefieldFFML>
<?xml version="1.0" encoding="UTF-8"?>
<!DOCTYPE ffml SYSTEM "Ffml.dtd">
<ffml version="1.0">
<forcefield name="MMFF" derivedFrom="MMFF" base="MMFF">
<atomTypes>
<atomType
name="C100"
element="C"
mass="12.011"
annotation=""/>
<atomType
name="F101"
element="F"
mass="18.998"
annotation=""/>
<atomType
name="O102"
element="O"
mass="16"
annotation=""/>
<atomType
name="Cl103"
element="Cl"
mass="35.453"
annotation=""/>
<atomType
name="H104"
element="H"
mass="1.008"
annotation=""/>
</atomTypes>
<parameters>
</parameters>
</forcefield>
</ffml>

> <Initial Potential Energy>
155.6123

> <Initial RMS Gradient>
32.4799

> <Minimization Criteria>
STEEPD> Minimization exiting with gradient tolerance ( 3.0000000) satisfied.

> <CHARMm Energy>
96.27313

> <Potential Energy>
96.27313

> <RMS Gradient>
0.06936

> <Bond Energy>
4.49514

> <Angle Energy>
7.68881

> <STRBend>
0.50892

> <Dihedral Energy>
3.48002

> <OOPLane>
0.05879

> <Van der Waals Energy>
39.43945

> <Electrostatic Energy>
40.602

> <Hydrogen Bond Energy>
0

> <Solvation Free Energy>
0

> <HasGasteigerCharges>
true

> <REMARK99>
REMARK  99  MacroMolecule created from Mol2 file
REMARK  99  CHEMBL451321
REMARK  99  PROTEIN
REMARK  99  GASTEIGER
REMARK  99
REMARK  99

$$$$
CHEMBL4066332
  SciTegic05292516403D

 49 50  0  0  0  0            999 V2000
    5.6481  -15.5392   -1.3704 O   0  0
    5.5299  -14.3801   -0.5149 S   0  0
    4.6108  -13.3048   -0.8336 O   0  0
    7.0472  -13.6540   -0.3293 N   0  0
    8.2071  -14.4900   -0.3580 C   0  0
    8.8199  -14.8394    0.8429 C   0  0
    9.9740  -15.6374    0.8404 C   0  0
   10.5256  -16.1105   -0.3625 C   0  0
    9.8954  -15.7375   -1.5647 C   0  0
    8.7441  -14.9370   -1.5627 C   0  0
   11.7399  -17.0124   -0.4102 C   0  0
   12.9906  -16.2936   -0.2854 N   0  0
   14.1953  -16.9668   -0.3665 C   0  0
   15.4436  -16.1687   -0.1892 C   0  0
   16.5923  -16.8397    0.2412 C   0  0
   16.7543  -14.1291   -0.3372 C   0  0
   15.5330  -14.8072   -0.4841 C   0  0
   17.9188  -14.7883    0.1013 C   0  0
   17.8099  -16.1617    0.3854 C   0  0
   19.2746  -14.0740    0.2600 C   0  0
   19.2271  -12.5641   -0.0655 C   0  0
   20.3105  -14.7144   -0.6886 C   0  0
   19.7674  -14.2095    1.7172 C   0  0
   14.2916  -18.1781   -0.5508 O   0  0
   10.6880  -16.0047    2.3705 Cl  0  0
    5.1818  -14.9076    1.1490 C   0  0
    7.1099  -12.8291   -0.9297 H   0  0
    8.4070  -14.4808    1.7826 H   0  0
   10.2888  -16.0865   -2.5190 H   0  0
    8.2632  -14.6870   -2.5066 H   0  0
   11.6907  -17.7752    0.3757 H   0  0
   11.7640  -17.5651   -1.3579 H   0  0
   12.9675  -15.3234   -0.0071 H   0  0
   16.5553  -17.9070    0.4571 H   0  0
   16.7842  -13.0734   -0.5956 H   0  0
   14.6761  -14.2583   -0.8635 H   0  0
   18.6779  -16.7316    0.7155 H   0  0
   20.2110  -12.0994    0.0710 H   0  0
   18.5258  -12.0326    0.5885 H   0  0
   18.9289  -12.3840   -1.1049 H   0  0
   21.2780  -14.2032   -0.6204 H   0  0
   19.9769  -14.6597   -1.7317 H   0  0
   20.4886  -15.7700   -0.4557 H   0  0
   20.7141  -13.6768    1.8654 H   0  0
   19.9406  -15.2531    2.0016 H   0  0
   19.0367  -13.7934    2.4208 H   0  0
    5.2368  -14.0441    1.8144 H   0  0
    5.8985  -15.6770    1.4397 H   0  0
    4.1713  -15.3220    1.1638 H   0  0
  2  1  2  0
  2 26  1  0
  3  2  2  0
  4  2  1  0
  4 27  1  0
  5  4  1  0
  5  6  2  0
  6  7  1  0
  6 28  1  0
  7  8  2  0
  7 25  1  0
  8  9  1  0
  8 11  1  0
  9 10  2  0
  9 29  1  0
 10  5  1  0
 10 30  1  0
 11 12  1  0
 11 31  1  0
 11 32  1  0
 12 13  1  0
 12 33  1  0
 13 14  1  0
 13 24  2  0
 14 15  1  0
 14 17  2  0
 15 19  2  0
 15 34  1  0
 16 17  1  0
 16 35  1  0
 17 36  1  0
 18 16  2  0
 18 19  1  0
 18 20  1  0
 19 37  1  0
 20 22  1  0
 20 23  1  0
 21 20  1  0
 21 38  1  0
 21 39  1  0
 21 40  1  0
 22 41  1  0
 22 42  1  0
 22 43  1  0
 23 44  1  0
 23 45  1  0
 23 46  1  0
 26 47  1  0
 26 48  1  0
 26 49  1  0
M  END
> <Name>
CHEMBL4066332

> <Clean Energy>
10.3877

> <chembl_id>
CHEMBL4066332

> <chembl_pref_name>
None

> <efficacy>
0.284900285

> <Forcefield>
MMFF

> <ForcefieldBase>
MMFF

> <ForcefieldFFML>
<?xml version="1.0" encoding="UTF-8"?>
<!DOCTYPE ffml SYSTEM "Ffml.dtd">
<ffml version="1.0">
<forcefield name="MMFF" derivedFrom="MMFF" base="MMFF">
<atomTypes>
<atomType
name="O100"
element="O"
mass="16"
annotation=""/>
<atomType
name="S101"
element="S"
mass="32.066"
annotation=""/>
<atomType
name="N102"
element="N"
mass="14.007"
annotation=""/>
<atomType
name="C103"
element="C"
mass="12.011"
annotation=""/>
<atomType
name="Cl104"
element="Cl"
mass="35.453"
annotation=""/>
<atomType
name="H105"
element="H"
mass="1.008"
annotation=""/>
</atomTypes>
<parameters>
</parameters>
</forcefield>
</ffml>

> <Initial Potential Energy>
45.27098

> <Initial RMS Gradient>
29.78123

> <Minimization Criteria>
CONJUG> Minimization exiting with gradient tolerance ( 0.0100000) satisfied.

> <CHARMm Energy>
-22.3922

> <Potential Energy>
-22.3922

> <RMS Gradient>
0.00876

> <Bond Energy>
6.69962

> <Angle Energy>
7.96368

> <STRBend>
0.89766

> <Dihedral Energy>
14.88117

> <OOPLane>
0.09119

> <Van der Waals Energy>
48.90275

> <Electrostatic Energy>
-101.82828

> <Hydrogen Bond Energy>
0

> <Solvation Free Energy>
0

> <HasGasteigerCharges>
true

> <REMARK99>
REMARK  99  MacroMolecule created from Mol2 file
REMARK  99  CHEMBL4066332
REMARK  99  PROTEIN
REMARK  99  GASTEIGER
REMARK  99
REMARK  99

$$$$
CHEMBL5085618
  SciTegic05292516403D

 45 47  0  0  0  0            999 V2000
   30.4309    0.8782    0.6961 F   0  0
   31.6307    0.5157    0.1595 C   0  0
   31.9524    1.4957   -0.7265 F   0  0
   30.0057   -5.8331   -0.1305 O   0  0
   28.8650   -4.9486    0.0311 S   0  0
   27.5118   -5.4820   -0.0487 O   0  0
   30.4075   -1.6033   -0.4815 C   0  0
   30.3166   -2.8754   -1.0692 C   0  0
   31.4701   -3.4109   -1.6505 C   0  0
   32.6714   -2.6902   -1.6620 C   0  0
   32.7710   -1.4123   -1.0790 C   0  0
   31.6162   -0.8620   -0.4766 C   0  0
   34.0939   -0.6647   -1.1726 C   0  0
   35.1847   -1.4524   -0.6432 N   0  0
   36.5098   -1.1205   -0.8481 C   0  0
   37.4992   -2.1029   -0.3196 C   0  0
   36.8953   -0.0965   -1.4032 O   0  0
   37.2061   -3.4726   -0.2585 C   0  0
   38.1391   -4.3951    0.2301 C   0  0
   38.7570   -1.6305    0.0837 C   0  0
   39.7070   -2.5431    0.5838 C   0  0
   39.3764   -3.8985    0.6465 C   0  0
   40.4805   -4.5569    1.1471 N   0  0
   41.4776   -3.6585    1.4284 C   0  0
   41.0352   -2.4060    1.0775 C   0  0
   28.9927   -3.6047   -1.1493 C   0  0
   29.0129   -4.1560    1.6154 C   0  0
   32.5319    0.6029    1.1765 F   0  0
   29.5172   -1.1558   -0.0370 H   0  0
   31.4460   -4.3933   -2.1229 H   0  0
   33.5382   -3.1323   -2.1537 H   0  0
   34.3026   -0.4215   -2.2210 H   0  0
   34.0877    0.2759   -0.6169 H   0  0
   34.9569   -2.2129   -0.0178 H   0  0
   36.2549   -3.8547   -0.6200 H   0  0
   37.9002   -5.4536    0.2710 H   0  0
   39.0156   -0.5751    0.0108 H   0  0
   40.5509   -5.5586    1.2782 H   0  0
   42.4186   -3.9919    1.8423 H   0  0
   41.5929   -1.4834    1.1676 H   0  0
   28.1522   -2.9274   -0.9644 H   0  0
   28.8574   -4.0350   -2.1475 H   0  0
   28.2569   -3.3722    1.6897 H   0  0
   30.0169   -3.7432    1.7218 H   0  0
   28.8426   -4.9102    2.3869 H   0  0
  2  1  1  0
  2 28  1  0
  3  2  1  0
  5  4  2  0
  5 27  1  0
  6  5  2  0
  7  8  2  0
  7 29  1  0
  8  9  1  0
  8 26  1  0
  9 10  2  0
  9 30  1  0
 10 11  1  0
 10 31  1  0
 11 12  2  0
 11 13  1  0
 12  2  1  0
 12  7  1  0
 13 14  1  0
 13 32  1  0
 13 33  1  0
 14 15  1  0
 14 34  1  0
 15 16  1  0
 15 17  2  0
 16 18  2  0
 18 19  1  0
 18 35  1  0
 19 22  2  0
 19 36  1  0
 20 16  1  0
 20 37  1  0
 21 20  2  0
 21 22  1  0
 22 23  1  0
 23 24  1  0
 23 38  1  0
 24 25  2  0
 24 39  1  0
 25 21  1  0
 25 40  1  0
 26  5  1  0
 26 41  1  0
 26 42  1  0
 27 43  1  0
 27 44  1  0
 27 45  1  0
M  END
> <Name>
CHEMBL5085618

> <Clean Energy>
40.4776

> <chembl_id>
CHEMBL5085618

> <chembl_pref_name>
None

> <efficacy>
0.313390313

> <Forcefield>
MMFF

> <ForcefieldBase>
MMFF

> <ForcefieldFFML>
<?xml version="1.0" encoding="UTF-8"?>
<!DOCTYPE ffml SYSTEM "Ffml.dtd">
<ffml version="1.0">
<forcefield name="MMFF" derivedFrom="MMFF" base="MMFF">
<atomTypes>
<atomType
name="F100"
element="F"
mass="18.998"
annotation=""/>
<atomType
name="C101"
element="C"
mass="12.011"
annotation=""/>
<atomType
name="O102"
element="O"
mass="16"
annotation=""/>
<atomType
name="S103"
element="S"
mass="32.066"
annotation=""/>
<atomType
name="N104"
element="N"
mass="14.007"
annotation=""/>
<atomType
name="H105"
element="H"
mass="1.008"
annotation=""/>
</atomTypes>
<parameters>
</parameters>
</forcefield>
</ffml>

> <Initial Potential Energy>
143.72856

> <Initial RMS Gradient>
31.41283

> <Minimization Criteria>
CONJUG> Minimization exiting with gradient tolerance ( 0.0100000) satisfied.

> <CHARMm Energy>
57.20742

> <Potential Energy>
57.20742

> <RMS Gradient>
0.00915

> <Bond Energy>
6.15698

> <Angle Energy>
6.47778

> <STRBend>
0.21754

> <Dihedral Energy>
5.67427

> <OOPLane>
0.09471

> <Van der Waals Energy>
38.79

> <Electrostatic Energy>
-0.20386

> <Hydrogen Bond Energy>
0

> <Solvation Free Energy>
0

> <HasGasteigerCharges>
true

> <REMARK99>
REMARK  99  MacroMolecule created from Mol2 file
REMARK  99  CHEMBL5085618
REMARK  99  PROTEIN
REMARK  99  GASTEIGER
REMARK  99
REMARK  99

$$$$
CHEMBL2042812
  SciTegic05292516403D

 62 66  0  0  0  0            999 V2000
   28.3370  -15.0476   -1.2434 O   0  0
   27.1808  -14.2653   -1.1853 C   0  0
   27.4831  -12.8797   -0.6856 C   0  0  2  0  0  0
   28.8192  -13.1430   -0.0440 C   0  0
   29.3169  -14.3836   -0.5144 C   0  0
   30.6205  -14.8227   -0.2499 C   0  0
   31.3947  -13.9827    0.5794 C   0  0
   30.8969  -12.7565    1.0640 C   0  0
   29.6043  -12.3455    0.7616 C   0  0
   29.1875  -11.1588    1.2725 O   0  0
   32.6950  -14.3010    0.9077 O   0  0
   32.7647  -14.7734    2.2572 C   0  0
   31.1535  -16.1176   -0.8060 C   0  0
   32.5293  -16.2670   -0.8212 N   0  0
   33.2233  -17.4835   -1.1996 C   0  0
   34.5055  -17.5952   -0.3959 C   0  0
   35.7062  -16.9572   -0.8460 C   0  0
   36.8510  -17.0125   -0.0127 C   0  0
   36.7928  -17.6693    1.2202 C   0  0
   35.6297  -18.3000    1.6463 C   0  0
   34.4765  -18.2613    0.8596 C   0  0
   33.2288  -18.9289    1.3805 C   0  0
   38.0543  -16.4171   -0.4166 C   0  0
   38.1578  -15.7957   -1.6515 C   0  0
   37.0556  -15.7030   -2.4836 C   0  0
   35.8380  -16.2606   -2.0774 C   0  0
   39.3367  -15.2880   -2.0409 F   0  0
   30.3934  -16.9897   -1.2092 O   0  0
   26.3327  -12.4008    0.2024 C   0  0
   24.9299  -12.7771   -0.2104 C   0  0
   24.7995  -13.8806   -0.9833 C   0  0
   25.9307  -14.7246   -1.3379 C   0  0
   23.5980  -14.3700   -1.4577 O   0  0
   23.7112  -11.9823    0.1678 C   0  0
   23.8767  -10.6779    0.9005 C   0  0
   22.5867  -12.3926   -0.1377 O   0  0
   26.5210  -11.6417    1.1568 O   0  0
   27.6494  -11.8875   -1.8485 C   0  0
   31.5293  -12.1161    1.6746 H   0  0
   28.2105  -11.1668    1.3709 H   0  0
   33.7723  -15.1678    2.4193 H   0  0
   32.0503  -15.5853    2.4341 H   0  0
   32.6022  -13.9573    2.9685 H   0  0
   33.0896  -15.4888   -0.4875 H   0  0
   32.5684  -18.3472   -1.0477 H   0  0
   33.4077  -17.4544   -2.2769 H   0  0
   37.6707  -17.7145    1.8622 H   0  0
   35.6412  -18.8239    2.6013 H   0  0
   33.3767  -19.3204    2.3929 H   0  0
   32.9542  -19.7726    0.7398 H   0  0
   32.4011  -18.2147    1.4307 H   0  0
   38.9291  -16.4423    0.2231 H   0  0
   37.1584  -15.2132   -3.4474 H   0  0
   34.9886  -16.1475   -2.7483 H   0  0
   25.7444  -15.7517   -1.6380 H   0  0
   22.8485  -13.7956   -1.1570 H   0  0
   24.6078  -10.0434    0.3931 H   0  0
   24.1675  -10.8643    1.9369 H   0  0
   22.9213  -10.1436    0.9007 H   0  0
   27.9469  -10.8983   -1.4796 H   0  0
   26.7145  -11.7536   -2.4054 H   0  0
   28.4143  -12.2140   -2.5638 H   0  0
  1  2  1  0
  2  3  1  0
  2 32  2  0
  3  4  1  0
  3 29  1  0
  3 38  1  0
  4  5  2  0
  4  9  1  0
  5  1  1  0
  5  6  1  0
  6  7  2  0
  6 13  1  0
  7  8  1  0
  7 11  1  0
  8  9  2  0
  8 39  1  0
  9 10  1  0
 10 40  1  0
 11 12  1  0
 12 41  1  0
 12 42  1  0
 12 43  1  0
 13 14  1  0
 13 28  2  0
 14 15  1  0
 14 44  1  0
 15 16  1  0
 15 45  1  0
 15 46  1  0
 16 21  1  0
 17 16  2  0
 17 26  1  0
 18 17  1  0
 18 23  1  0
 19 18  2  0
 19 47  1  0
 20 19  1  0
 20 21  2  0
 20 48  1  0
 21 22  1  0
 22 49  1  0
 22 50  1  0
 22 51  1  0
 23 24  2  0
 23 52  1  0
 24 25  1  0
 24 27  1  0
 25 26  2  0
 25 53  1  0
 26 54  1  0
 29 30  1  0
 29 37  2  0
 30 31  2  0
 30 34  1  0
 31 32  1  0
 31 33  1  0
 32 55  1  0
 33 56  1  0
 34 35  1  0
 34 36  2  0
 35 57  1  0
 35 58  1  0
 35 59  1  0
 38 60  1  0
 38 61  1  0
 38 62  1  0
M  END
> <Name>
CHEMBL2042812

> <Clean Energy>
63.815701

> <chembl_id>
CHEMBL2042812

> <chembl_pref_name>
None

> <efficacy>
0.264150943

> <Forcefield>
MMFF

> <ForcefieldBase>
MMFF

> <ForcefieldFFML>
<?xml version="1.0" encoding="UTF-8"?>
<!DOCTYPE ffml SYSTEM "Ffml.dtd">
<ffml version="1.0">
<forcefield name="MMFF" derivedFrom="MMFF" base="MMFF">
<atomTypes>
<atomType
name="O100"
element="O"
mass="16"
annotation=""/>
<atomType
name="C101"
element="C"
mass="12.011"
annotation=""/>
<atomType
name="N102"
element="N"
mass="14.007"
annotation=""/>
<atomType
name="F103"
element="F"
mass="18.998"
annotation=""/>
<atomType
name="H104"
element="H"
mass="1.008"
annotation=""/>
</atomTypes>
<parameters>
</parameters>
</forcefield>
</ffml>

> <Initial Potential Energy>
290.9328

> <Initial RMS Gradient>
75.61146

> <Minimization Criteria>
CONJUG> Minimization exiting with gradient tolerance ( 0.0100000) satisfied.

> <CHARMm Energy>
57.87619

> <Potential Energy>
57.87619

> <RMS Gradient>
0.00972

> <Bond Energy>
11.67837

> <Angle Energy>
26.47984

> <STRBend>
0.47877

> <Dihedral Energy>
14.65926

> <OOPLane>
0.55881

> <Van der Waals Energy>
78.62512

> <Electrostatic Energy>
-74.60396

> <Hydrogen Bond Energy>
0

> <Solvation Free Energy>
0

> <HasGasteigerCharges>
true

> <REMARK99>
REMARK  99  MacroMolecule created from Mol2 file
REMARK  99  CHEMBL2042812
REMARK  99  PROTEIN
REMARK  99  GASTEIGER
REMARK  99
REMARK  99

$$$$
CHEMBL472244
  SciTegic05292516403D

 43 45  0  0  0  0            999 V2000
   13.0574    2.6167   -0.5229 C   0  0
   13.4199    2.0496   -1.7409 C   0  0
   14.7637    1.8963   -2.0710 C   0  0
   15.7571    2.3016   -1.1728 C   0  0
   15.4046    2.8492    0.0603 C   0  0
   14.0516    3.0173    0.3735 C   0  0
   12.2068    1.5380   -2.8454 Cl  0  0
   16.2705    3.2769    1.0283 O   0  0
   17.6222    2.7660    1.0056 C   0  0  1  0  0  0
   18.4425    3.7014    1.9000 C   0  0
   17.6786    1.3338    1.5746 C   0  0
   17.7674    4.8168    2.2832 O   0  0
   19.6009    3.4920    2.2347 O   0  0
   18.5841    0.3988    0.7962 C   0  0
   19.9753    0.4231    0.9826 C   0  0
   20.8079   -0.4536    0.2770 C   0  0
   20.2528   -1.3747   -0.6096 C   0  0
   18.8755   -1.3938   -0.8244 C   0  0
   18.0439   -0.5175   -0.1189 C   0  0
   21.0388   -2.2080   -1.3690 O   0  0
   21.7698   -3.1957   -0.7400 C   0  0
   21.4865   -3.7228    0.5210 C   0  0
   22.2725   -4.7588    1.0393 C   0  0
   23.3332   -5.2853    0.2975 C   0  0
   23.6129   -4.7710   -0.9677 C   0  0
   22.8313   -3.7296   -1.4823 C   0  0
   12.0097    2.7455   -0.2633 H   0  0
   15.0502    1.4615   -3.0259 H   0  0
   16.7888    2.1796   -1.4835 H   0  0
   13.7647    3.4504    1.3288 H   0  0
   18.0602    2.8702    0.0071 H   0  0
   18.0095    1.3351    2.6219 H   0  0
   16.6734    0.8938    1.6059 H   0  0
   16.8529    4.7863    1.9244 H   0  0
   20.4284    1.1227    1.6838 H   0  0
   21.8842   -0.4117    0.4203 H   0  0
   18.4490   -2.0952   -1.5365 H   0  0
   16.9698   -0.5643   -0.2864 H   0  0
   20.6537   -3.3523    1.1115 H   0  0
   22.0467   -5.1544    2.0263 H   0  0
   23.9375   -6.0967    0.7010 H   0  0
   24.4349   -5.1824   -1.5512 H   0  0
   23.0474   -3.3292   -2.4693 H   0  0
  1  2  2  0
  1 27  1  0
  2  3  1  0
  2  7  1  0
  3  4  2  0
  3 28  1  0
  4  5  1  0
  4 29  1  0
  5  6  2  0
  5  8  1  0
  6  1  1  0
  6 30  1  0
  8  9  1  0
  9 10  1  0
  9 11  1  0
  9 31  1  0
 10 12  1  0
 10 13  2  0
 11 14  1  0
 11 32  1  0
 11 33  1  0
 12 34  1  0
 14 15  2  0
 15 16  1  0
 15 35  1  0
 16 17  2  0
 16 36  1  0
 17 18  1  0
 17 20  1  0
 18 19  2  0
 18 37  1  0
 19 14  1  0
 19 38  1  0
 20 21  1  0
 21 22  2  0
 22 23  1  0
 22 39  1  0
 23 24  2  0
 23 40  1  0
 24 25  1  0
 24 41  1  0
 25 26  2  0
 25 42  1  0
 26 21  1  0
 26 43  1  0
M  END
> <Name>
CHEMBL472244

> <Clean Energy>
24.2861

> <chembl_id>
CHEMBL472244

> <chembl_pref_name>
None

> <efficacy>
0.22

> <Forcefield>
MMFF

> <ForcefieldBase>
MMFF

> <ForcefieldFFML>
<?xml version="1.0" encoding="UTF-8"?>
<!DOCTYPE ffml SYSTEM "Ffml.dtd">
<ffml version="1.0">
<forcefield name="MMFF" derivedFrom="MMFF" base="MMFF">
<atomTypes>
<atomType
name="C100"
element="C"
mass="12.011"
annotation=""/>
<atomType
name="Cl101"
element="Cl"
mass="35.453"
annotation=""/>
<atomType
name="O102"
element="O"
mass="16"
annotation=""/>
<atomType
name="H103"
element="H"
mass="1.008"
annotation=""/>
</atomTypes>
<parameters>
</parameters>
</forcefield>
</ffml>

> <Initial Potential Energy>
189.21871

> <Initial RMS Gradient>
39.12706

> <Minimization Criteria>
CONJUG> Minimization exiting with gradient tolerance ( 0.0100000) satisfied.

> <CHARMm Energy>
72.22787

> <Potential Energy>
72.22787

> <RMS Gradient>
0.00831

> <Bond Energy>
5.38176

> <Angle Energy>
14.38527

> <STRBend>
0.63478

> <Dihedral Energy>
7.2751

> <OOPLane>
0.09696

> <Van der Waals Energy>
55.96441

> <Electrostatic Energy>
-11.5104

> <Hydrogen Bond Energy>
0

> <Solvation Free Energy>
0

> <HasGasteigerCharges>
true

> <REMARK99>
REMARK  99  MacroMolecule created from Mol2 file
REMARK  99  CHEMBL472244
REMARK  99  PROTEIN
REMARK  99  GASTEIGER
REMARK  99
REMARK  99

$$$$
CHEMBL3115244
  SciTegic05292516403D

 73 77  0  0  0  0            999 V2000
   12.7855  -10.1642   -1.4398 C   0  0
   13.1676  -11.4926   -1.2411 C   0  0
   13.0914  -12.0765    0.0344 C   0  0
   12.6444  -11.2869    1.1074 C   0  0
   12.2604   -9.9599    0.9070 C   0  0
   12.3338   -9.4001   -0.3662 C   0  0
   13.5242  -13.5130    0.2922 C   0  0  2  0  0  0
   14.9771  -13.5792    0.2659 N   0  0
   12.9096  -14.5098   -0.7075 C   0  0
   13.1498  -15.9589   -0.3001 C   0  0
   15.7325  -13.5749    1.4160 C   0  0
   15.2873  -13.6269    2.5536 O   0  0
   17.1895  -13.4344    1.1995 C   0  0
   17.8264  -12.3049    1.8079 C   0  0
   19.1962  -12.0095    1.6415 C   0  0
   17.8545  -14.3942    0.4034 C   0  0
   20.1391  -14.7935   -0.4453 C   0  0
   19.2043  -14.0757    0.2662 C   0  0
   19.8811  -12.9350    0.8345 C   0  0
   21.1631  -12.9513    0.4503 N   0  0
   21.2846  -14.0277   -0.3578 N   0  0
   20.0385  -16.0800   -1.2036 C   0  0
   22.5389  -14.1907   -1.0760 C   0  0
   23.7093  -14.5489   -0.1628 C   0  0
   24.9825  -14.7749   -0.9615 C   0  0
   21.0212  -17.1502   -0.7803 C   0  0
   21.6080  -17.9585   -1.7596 C   0  0
   22.5415  -18.9320   -1.4072 C   0  0
   22.9286  -19.1174   -0.0732 C   0  0
   22.3008  -18.3406    0.9109 C   0  0
   21.3449  -17.3804    0.5642 C   0  0
   23.9204  -20.1402    0.2927 C   0  0
   23.4671  -21.2744    0.9942 C   0  0
   24.3434  -22.2875    1.3826 C   0  0
   25.6941  -22.1992    1.0650 C   0  0
   26.1742  -21.0918    0.3693 C   0  0
   25.2999  -20.0542   -0.0001 C   0  0
   25.8862  -18.8735   -0.6869 C   0  0
   26.9623  -18.3836   -0.0302 O   0  0
   25.4333  -18.3671   -1.6974 O   0  0
   12.8363   -9.7229   -2.4320 H   0  0
   13.5339  -12.0645   -2.0899 H   0  0
   12.6007  -11.7060    2.1119 H   0  0
   11.8991   -9.3622    1.7422 H   0  0
   12.0341   -8.3663   -0.5207 H   0  0
   13.1796  -13.7992    1.2943 H   0  0
   15.4479  -13.4492   -0.6203 H   0  0
   11.8270  -14.3442   -0.7757 H   0  0
   13.3204  -14.3611   -1.7135 H   0  0
   12.6680  -16.6349   -1.0136 H   0  0
   12.7340  -16.1617    0.6919 H   0  0
   14.2181  -16.1962   -0.2818 H   0  0
   17.2204  -11.6302    2.4145 H   0  0
   19.6714  -11.1435    2.0822 H   0  0
   17.3553  -15.2498   -0.0283 H   0  0
   19.0334  -16.5067   -1.1056 H   0  0
   20.1697  -15.8507   -2.2693 H   0  0
   22.4026  -14.9446   -1.8559 H   0  0
   22.7306  -13.2390   -1.5872 H   0  0
   23.8796  -13.7467    0.5651 H   0  0
   23.4832  -15.4502    0.4151 H   0  0
   25.8065  -15.0461   -0.2942 H   0  0
   25.2690  -13.8694   -1.5058 H   0  0
   24.8516  -15.5840   -1.6865 H   0  0
   21.3555  -17.8252   -2.8093 H   0  0
   22.9921  -19.5324   -2.1944 H   0  0
   22.5603  -18.4740    1.9596 H   0  0
   20.8785  -16.7897    1.3516 H   0  0
   22.4082  -21.3703    1.2394 H   0  0
   23.9629  -23.1483    1.9257 H   0  0
   26.3727  -22.9944    1.3564 H   0  0
   27.2298  -21.0494    0.1059 H   0  0
   27.1045  -18.7709    0.8543 H   0  0
  1  2  2  0
  1 41  1  0
  2  3  1  0
  2 42  1  0
  3  4  2  0
  3  7  1  0
  4  5  1  0
  4 43  1  0
  5  6  2  0
  5 44  1  0
  6  1  1  0
  6 45  1  0
  7  8  1  0
  7  9  1  0
  7 46  1  0
  8 11  1  0
  8 47  1  0
  9 10  1  0
  9 48  1  0
  9 49  1  0
 10 50  1  0
 10 51  1  0
 10 52  1  0
 11 12  2  0
 13 11  1  0
 13 14  1  0
 14 15  2  0
 14 53  1  0
 15 19  1  0
 15 54  1  0
 16 13  2  0
 16 55  1  0
 17 18  2  0
 17 22  1  0
 18 16  1  0
 18 19  1  0
 19 20  2  0
 20 21  1  0
 21 17  1  0
 21 23  1  0
 22 26  1  0
 22 56  1  0
 22 57  1  0
 23 24  1  0
 23 58  1  0
 23 59  1  0
 24 25  1  0
 24 60  1  0
 24 61  1  0
 25 62  1  0
 25 63  1  0
 25 64  1  0
 26 27  2  0
 27 28  1  0
 27 65  1  0
 28 29  2  0
 28 66  1  0
 29 30  1  0
 29 32  1  0
 30 31  2  0
 30 67  1  0
 31 26  1  0
 31 68  1  0
 32 33  2  0
 33 34  1  0
 33 69  1  0
 34 35  2  0
 34 70  1  0
 35 36  1  0
 35 71  1  0
 36 37  2  0
 36 72  1  0
 37 32  1  0
 37 38  1  0
 38 39  1  0
 38 40  2  0
 39 73  1  0
M  END
> <Name>
CHEMBL3115244

> <Clean Energy>
68.000198

> <chembl_id>
CHEMBL3115244

> <chembl_pref_name>
None

> <efficacy>
0.24

> <Forcefield>
MMFF

> <ForcefieldBase>
MMFF

> <ForcefieldFFML>
<?xml version="1.0" encoding="UTF-8"?>
<!DOCTYPE ffml SYSTEM "Ffml.dtd">
<ffml version="1.0">
<forcefield name="MMFF" derivedFrom="MMFF" base="MMFF">
<atomTypes>
<atomType
name="C100"
element="C"
mass="12.011"
annotation=""/>
<atomType
name="N101"
element="N"
mass="14.007"
annotation=""/>
<atomType
name="O102"
element="O"
mass="16"
annotation=""/>
<atomType
name="H103"
element="H"
mass="1.008"
annotation=""/>
</atomTypes>
<parameters>
</parameters>
</forcefield>
</ffml>

> <Initial Potential Energy>
283.88097

> <Initial RMS Gradient>
34.68021

> <Minimization Criteria>
CONJUG> Minimization exiting with gradient tolerance ( 0.0100000) satisfied.

> <CHARMm Energy>
74.99015

> <Potential Energy>
74.99015

> <RMS Gradient>
0.00949

> <Bond Energy>
10.39065

> <Angle Energy>
18.17337

> <STRBend>
-1.01534

> <Dihedral Energy>
10.77693

> <OOPLane>
0.24494

> <Van der Waals Energy>
75.93241

> <Electrostatic Energy>
-39.51282

> <Hydrogen Bond Energy>
0

> <Solvation Free Energy>
0

> <HasGasteigerCharges>
true

> <REMARK99>
REMARK  99  MacroMolecule created from Mol2 file
REMARK  99  CHEMBL3115244
REMARK  99  PROTEIN
REMARK  99  GASTEIGER
REMARK  99
REMARK  99

$$$$
CHEMBL558083
  SciTegic05292516403D

 64 67  0  0  0  0            999 V2000
   -1.2844    1.0029   -0.3422 C   0  0
   -1.3392   -0.3769   -0.4793 C   0  0
   -0.2409   -1.1736   -0.1481 C   0  0
   -0.0879    1.6124    0.0736 C   0  0
    1.0185    0.8013    0.4148 C   0  0
    0.9457   -0.5888    0.3281 C   0  0
    2.1826   -1.1438    0.7778 C   0  0
    2.9837   -0.0640    1.1631 C   0  0
    2.2964    1.1124    0.8673 N   0  0
    4.3274   -0.0503    1.8157 C   0  0
    2.7780    2.4861    1.1297 C   0  0
    3.5389    3.1646   -0.0027 C   0  0
    4.3315    4.3143    0.2697 C   0  0
    5.0028    5.0029   -0.7543 C   0  0
    4.8188    4.5934   -2.0721 C   0  0
    4.0432    3.4695   -2.3612 C   0  0
    3.4114    2.7597   -1.3378 C   0  0
    5.7106    6.1601   -0.5115 O   0  0
    7.1435    6.0184   -0.2521 C   0  0  2  0  0  0
    7.7750    7.4548   -0.3934 C   0  0
    8.9534    7.7216   -0.1809 O   0  0
    6.9139    8.4171   -0.8029 O   0  0
    2.4585   -2.5925    0.8574 C   0  0
    1.6390   -3.3762    1.3284 O   0  0
    3.7418   -3.1298    0.3096 C   0  0
    4.1250   -4.4266    0.6782 C   0  0
    5.3190   -4.9720    0.2027 C   0  0
    6.1414   -4.2224   -0.6364 C   0  0
    5.7688   -2.9360   -1.0219 C   0  0
    4.5600   -2.3989   -0.5674 C   0  0
    7.6246   -4.8775   -1.2000 Cl  0  0
   -2.3253    1.8585   -0.5915 O   0  0
   -3.6321    1.2849   -0.6964 C   0  0
   -4.5527    2.2760   -0.7550 F   0  0
   -3.9206    0.5107    0.3732 F   0  0
   -3.7468    0.5452   -1.8233 F   0  0
    7.8757    5.1741   -1.3081 C   0  0
    7.3828    5.5751    1.2157 C   0  0
    7.6440    4.0871    1.4285 C   0  0
   -2.2269   -0.8946   -0.8283 H   0  0
   -0.3229   -2.2564   -0.2298 H   0  0
   -0.0269    2.6945    0.1478 H   0  0
    4.2972    0.5126    2.7540 H   0  0
    5.0715    0.4049    1.1546 H   0  0
    4.6665   -1.0586    2.0679 H   0  0
    1.9030    3.0923    1.3884 H   0  0
    3.4088    2.4386    2.0230 H   0  0
    4.4093    4.6830    1.2906 H   0  0
    5.2605    5.1480   -2.8923 H   0  0
    3.9100    3.1568   -3.3947 H   0  0
    2.7968    1.9042   -1.6117 H   0  0
    6.0175    8.0438   -0.9280 H   0  0
    3.4889   -5.0151    1.3381 H   0  0
    5.5998   -5.9798    0.4962 H   0  0
    6.4177   -2.3450   -1.6679 H   0  0
    4.2851   -1.4001   -0.9014 H   0  0
    8.9583    5.1685   -1.1364 H   0  0
    7.7042    5.5774   -2.3133 H   0  0
    7.5371    4.1334   -1.3197 H   0  0
    8.2466    6.1021    1.6398 H   0  0
    6.5239    5.8719    1.8304 H   0  0
    7.7122    3.8722    2.5001 H   0  0
    8.5929    3.7842    0.9750 H   0  0
    6.8512    3.4609    1.0146 H   0  0
  1  2  2  0
  1 32  1  0
  2  3  1  0
  2 40  1  0
  3  6  2  0
  3 41  1  0
  4  1  1  0
  4 42  1  0
  5  4  2  0
  5  6  1  0
  6  7  1  0
  7  8  2  0
  7 23  1  0
  8  9  1  0
  8 10  1  0
  9  5  1  0
  9 11  1  0
 10 43  1  0
 10 44  1  0
 10 45  1  0
 11 12  1  0
 11 46  1  0
 11 47  1  0
 12 13  2  0
 13 14  1  0
 13 48  1  0
 14 15  2  0
 14 18  1  0
 15 16  1  0
 15 49  1  0
 16 17  2  0
 16 50  1  0
 17 12  1  0
 17 51  1  0
 18 19  1  0
 19 20  1  0
 19 37  1  0
 19 38  1  0
 20 21  2  0
 20 22  1  0
 22 52  1  0
 23 24  2  0
 23 25  1  0
 25 26  2  0
 26 27  1  0
 26 53  1  0
 27 28  2  0
 27 54  1  0
 28 29  1  0
 28 31  1  0
 29 30  2  0
 29 55  1  0
 30 25  1  0
 30 56  1  0
 32 33  1  0
 33 34  1  0
 33 35  1  0
 33 36  1  0
 37 57  1  0
 37 58  1  0
 37 59  1  0
 38 39  1  0
 38 60  1  0
 38 61  1  0
 39 62  1  0
 39 63  1  0
 39 64  1  0
M  END
> <Name>
CHEMBL558083

> <Clean Energy>
87.278702

> <chembl_id>
CHEMBL558083

> <chembl_pref_name>
None

> <efficacy>
0.34

> <Forcefield>
MMFF

> <ForcefieldBase>
MMFF

> <ForcefieldFFML>
<?xml version="1.0" encoding="UTF-8"?>
<!DOCTYPE ffml SYSTEM "Ffml.dtd">
<ffml version="1.0">
<forcefield name="MMFF" derivedFrom="MMFF" base="MMFF">
<atomTypes>
<atomType
name="C100"
element="C"
mass="12.011"
annotation=""/>
<atomType
name="N101"
element="N"
mass="14.007"
annotation=""/>
<atomType
name="O102"
element="O"
mass="16"
annotation=""/>
<atomType
name="Cl103"
element="Cl"
mass="35.453"
annotation=""/>
<atomType
name="F104"
element="F"
mass="18.998"
annotation=""/>
<atomType
name="H105"
element="H"
mass="1.008"
annotation=""/>
</atomTypes>
<parameters>
</parameters>
</forcefield>
</ffml>

> <Initial Potential Energy>
296.46665

> <Initial RMS Gradient>
31.82915

> <Minimization Criteria>
STEEPD> Minimization exiting with gradient tolerance ( 3.0000000) satisfied.

> <CHARMm Energy>
138.5475

> <Potential Energy>
138.5475

> <RMS Gradient>
0.07619

> <Bond Energy>
12.05832

> <Angle Energy>
23.8334

> <STRBend>
1.96081

> <Dihedral Energy>
15.70603

> <OOPLane>
0.2852

> <Van der Waals Energy>
69.69348

> <Electrostatic Energy>
15.01027

> <Hydrogen Bond Energy>
0

> <Solvation Free Energy>
0

> <HasGasteigerCharges>
true

> <REMARK99>
REMARK  99  MacroMolecule created from Mol2 file
REMARK  99  CHEMBL558083
REMARK  99  PROTEIN
REMARK  99  GASTEIGER
REMARK  99
REMARK  99

$$$$
CHEMBL482857
  SciTegic05292516403D

 66 69  0  0  0  0            999 V2000
    5.3370  -13.8802   -0.0116 C   0  0
    5.9604  -14.3715    1.1394 C   0  0
    7.3028  -14.7478    1.1125 C   0  0
    8.0212  -14.6406   -0.0750 C   0  0
    7.4027  -14.1702   -1.2329 C   0  0
    6.0561  -13.7955   -1.2039 C   0  0
    4.0288  -13.5317    0.1583 O   0  0
    3.4448  -12.6829   -0.8297 C   0  0
    2.2327  -12.0377   -0.1998 C   0  0
    2.4049  -10.9862    0.7105 C   0  0
    1.3021  -10.4255    1.3576 C   0  0
    0.0042  -10.9033    1.1204 C   0  0
   -0.1597  -11.9701    0.2253 C   0  0
    0.9419  -12.5220   -0.4455 C   0  0
   -1.2977  -10.2450    2.1478 S   0  0
   -2.3957   -9.3901    1.0159 C   0  0
   -4.4732   -8.0654   -0.3250 C   0  0
   -4.5916   -9.4218   -0.0326 C   0  0
   -3.5646  -10.0721    0.6472 C   0  0
   -5.5122   -7.3940   -0.9285 O   0  0
   -6.6598   -7.3582   -0.0605 C   0  0
   -7.5354   -6.1791   -0.4207 C   0  0
   -7.1804   -5.5467   -1.5669 O   0  0
   -8.4970   -5.8218    0.2463 O   0  0
   -1.3929  -12.5186   -0.0268 O   0  0
   -1.6729  -13.5849    0.8915 C   0  0
   -1.9258  -14.8323    0.1499 C   0  0
   -3.1745   -5.9096   -0.4323 C   0  0
   -3.2941   -7.3619   -0.0208 C   0  0
   -2.2354   -8.0317    0.6481 C   0  0
   -0.9866   -7.2688    1.0437 C   0  0
   -0.7893   -5.9582    0.2867 C   0  0
   -2.0731   -5.1491    0.2963 C   0  0
   -2.1617  -15.8517   -0.4412 C   0  0
   -2.4637  -17.1078   -1.1485 C   0  0
   -3.9031  -17.5351   -0.9170 C   0  0
    9.6807  -15.0918   -0.1142 Cl  0  0
    5.3926  -14.4454    2.0646 H   0  0
    7.7796  -15.1173    2.0162 H   0  0
    7.9633  -14.0926   -2.1606 H   0  0
    5.5957  -13.4477   -2.1229 H   0  0
    4.1334  -11.8890   -1.1469 H   0  0
    3.1576  -13.2760   -1.7057 H   0  0
    3.4102  -10.6317    0.9456 H   0  0
    1.4573   -9.6200    2.0722 H   0  0
    0.7909  -13.3558   -1.1286 H   0  0
   -5.4859   -9.9757   -0.3025 H   0  0
   -3.6934  -11.1180    0.9155 H   0  0
   -7.2483   -8.2710   -0.1990 H   0  0
   -6.3603   -7.2328    0.9876 H   0  0
   -6.3821   -5.9889   -1.9358 H   0  0
   -0.8701  -13.7456    1.6242 H   0  0
   -2.5723  -13.3083    1.4523 H   0  0
   -2.9817   -5.8821   -1.5124 H   0  0
   -4.1204   -5.3851   -0.2523 H   0  0
   -1.0415   -7.0572    2.1192 H   0  0
   -0.0971   -7.8793    0.8623 H   0  0
    0.0234   -5.3861    0.7481 H   0  0
   -0.4899   -6.1654   -0.7486 H   0  0
   -1.9133   -4.1789   -0.1872 H   0  0
   -2.3774   -4.9477    1.3312 H   0  0
   -2.2911  -16.9763   -2.2223 H   0  0
   -1.7878  -17.8993   -0.8067 H   0  0
   -4.1182  -18.4610   -1.4598 H   0  0
   -4.6040  -16.7668   -1.2614 H   0  0
   -4.0966  -17.7113    0.1466 H   0  0
  1  2  2  0
  1  7  1  0
  2  3  1  0
  2 38  1  0
  3  4  2  0
  3 39  1  0
  4  5  1  0
  4 37  1  0
  5  6  2  0
  5 40  1  0
  6  1  1  0
  6 41  1  0
  7  8  1  0
  8  9  1  0
  8 42  1  0
  8 43  1  0
  9 10  2  0
 10 11  1  0
 10 44  1  0
 11 12  2  0
 11 45  1  0
 12 13  1  0
 12 15  1  0
 13 14  2  0
 13 25  1  0
 14  9  1  0
 14 46  1  0
 15 16  1  0
 16 30  2  0
 17 18  1  0
 17 20  1  0
 18 19  2  0
 18 47  1  0
 19 16  1  0
 19 48  1  0
 20 21  1  0
 21 22  1  0
 21 49  1  0
 21 50  1  0
 22 23  1  0
 22 24  2  0
 23 51  1  0
 25 26  1  0
 26 27  1  0
 26 52  1  0
 26 53  1  0
 27 34  3  0
 28 29  1  0
 28 33  1  0
 28 54  1  0
 28 55  1  0
 29 17  2  0
 29 30  1  0
 30 31  1  0
 31 32  1  0
 31 56  1  0
 31 57  1  0
 32 33  1  0
 32 58  1  0
 32 59  1  0
 33 60  1  0
 33 61  1  0
 34 35  1  0
 35 36  1  0
 35 62  1  0
 35 63  1  0
 36 64  1  0
 36 65  1  0
 36 66  1  0
M  END
> <Name>
CHEMBL482857

> <Clean Energy>
110.557999

> <chembl_id>
CHEMBL482857

> <chembl_pref_name>
None

> <efficacy>
0.37

> <Forcefield>
MMFF

> <ForcefieldBase>
MMFF

> <ForcefieldFFML>
<?xml version="1.0" encoding="UTF-8"?>
<!DOCTYPE ffml SYSTEM "Ffml.dtd">
<ffml version="1.0">
<forcefield name="MMFF" derivedFrom="MMFF" base="MMFF">
<atomTypes>
<atomType
name="C100"
element="C"
mass="12.011"
annotation=""/>
<atomType
name="O101"
element="O"
mass="16"
annotation=""/>
<atomType
name="S102"
element="S"
mass="32.066"
annotation=""/>
<atomType
name="Cl103"
element="Cl"
mass="35.453"
annotation=""/>
<atomType
name="H104"
element="H"
mass="1.008"
annotation=""/>
</atomTypes>
<parameters>
</parameters>
</forcefield>
</ffml>

> <Initial Potential Energy>
389.94224

> <Initial RMS Gradient>
34.64239

> <Minimization Criteria>
STEEPD> Minimization exiting with gradient tolerance ( 3.0000000) satisfied.

> <CHARMm Energy>
82.75823

> <Potential Energy>
82.75823

> <RMS Gradient>
0.09411

> <Bond Energy>
7.20143

> <Angle Energy>
16.24911

> <STRBend>
0.45909

> <Dihedral Energy>
12.13068

> <OOPLane>
0.27451

> <Van der Waals Energy>
69.02893

> <Electrostatic Energy>
-22.58551

> <Hydrogen Bond Energy>
0

> <Solvation Free Energy>
0

> <HasGasteigerCharges>
true

> <REMARK99>
REMARK  99  MacroMolecule created from Mol2 file
REMARK  99  CHEMBL482857
REMARK  99  PROTEIN
REMARK  99  GASTEIGER
REMARK  99
REMARK  99

$$$$
CHEMBL431348
  SciTegic05292516403D

 75 79  0  0  0  0            999 V2000
   11.4287   -4.1881   -0.7021 S   0  0
    9.7777   -4.3295   -0.5489 N   0  0
    2.9936   -3.0650   -1.0930 C   0  0
    3.1662   -0.9761   -1.8818 N   0  0
    1.7542   -2.3621   -0.8575 C   0  0
    3.8129   -2.1745   -1.7680 C   0  0
    1.8976   -1.0642   -1.3548 C   0  0
    9.0088   -5.4150   -0.9820 C   0  0
   -2.9087   -1.4709    0.5816 C   0  0
   12.0591   -5.2563    0.5844 C   0  0
    3.2759   -4.4890   -0.6926 C   0  0
    7.5459   -5.2138   -0.8497 C   0  0
    4.7748   -4.7445   -0.7148 C   0  0
   11.8426   -4.6412   -2.0090 O   0  0
   11.7161   -2.8281   -0.2854 O   0  0
    5.6186   -4.3228    0.3361 C   0  0
   -1.7539   -2.2110    0.3746 N   0  0
    7.0000   -4.5524    0.2594 C   0  0
    0.8705   -0.1128   -1.2754 C   0  0
   -3.9341   -2.2717    1.0545 N   0  0
    0.5153   -2.7136   -0.2671 C   0  0
   -0.5349   -1.7768   -0.1928 C   0  0
   -3.0655   -0.2711    0.3948 O   0  0
    9.4627   -6.4521   -1.4323 O   0  0
    6.7149   -5.6699   -1.8750 C   0  0
    5.3409   -5.4262   -1.8123 C   0  0
   12.7602   -6.4516    0.3360 C   0  0
   -0.3474   -0.4903   -0.6953 C   0  0
    3.7408    0.2091   -2.4773 C   0  0
    4.9949   -3.7098    1.3925 O   0  0
   -5.2510   -1.7297    1.3557 C   0  0
   11.9047   -4.7885    1.9027 C   0  0
   12.9783   -7.0242   -1.0358 C   0  0
   13.3163   -7.1389    1.4344 C   0  0
    5.8173   -3.1484    2.4087 C   0  0
   -6.1354   -1.6725    0.1126 C   0  0
   -6.0380   -2.6552    2.2787 C   0  0
   12.4481   -5.4958    2.9746 C   0  0
   13.1620   -6.6662    2.7397 C   0  0
   -6.6519   -3.7072    1.3564 C   0  0
   -6.6643   -3.0951   -0.0444 C   0  0
    9.3458   -3.4412   -0.3158 H   0  0
    4.8195   -2.2955   -2.1498 H   0  0
    2.8782   -4.7005    0.3069 H   0  0
    2.7633   -5.1680   -1.3848 H   0  0
   -1.8099   -3.1658    0.6872 H   0  0
    7.6607   -4.2527    1.0662 H   0  0
    1.0012    0.8919   -1.6633 H   0  0
   -3.8094   -3.2717    1.0518 H   0  0
    0.3720   -3.7189    0.1159 H   0  0
    7.1395   -6.1956   -2.7306 H   0  0
    4.7076   -5.7634   -2.6324 H   0  0
   -1.1409    0.2548   -0.6617 H   0  0
    3.1382    0.4859   -3.3462 H   0  0
    4.7677    0.0036   -2.7902 H   0  0
    3.7358    1.0084   -1.7318 H   0  0
   -5.1249   -0.7366    1.8000 H   0  0
   11.3789   -3.8556    2.0991 H   0  0
   13.4299   -8.0214   -0.9831 H   0  0
   13.6618   -6.3917   -1.6100 H   0  0
   12.0301   -7.1446   -1.5658 H   0  0
   13.8926   -8.0519    1.2788 H   0  0
    5.1630   -2.6427    3.1253 H   0  0
    6.5015   -2.3992    1.9967 H   0  0
    6.3612   -3.9299    2.9490 H   0  0
   -6.9770   -0.9914    0.2896 H   0  0
   -5.6094   -1.3322   -0.7847 H   0  0
   -5.4252   -3.1080    3.0647 H   0  0
   -6.8439   -2.0912    2.7644 H   0  0
   12.3280   -5.1215    3.9878 H   0  0
   13.6125   -7.2094    3.5690 H   0  0
   -6.0480   -4.6218    1.3589 H   0  0
   -7.6592   -3.9804    1.6872 H   0  0
   -6.0088   -3.6730   -0.7064 H   0  0
   -7.6658   -3.1045   -0.4860 H   0  0
  2  1  1  0
  2 42  1  0
  3 11  1  0
  4  6  1  0
  5  3  1  0
  6  3  2  0
  6 43  1  0
  7  4  1  0
  7  5  2  0
  8  2  1  0
  9 17  1  0
 10  1  1  0
 11 13  1  0
 11 44  1  0
 11 45  1  0
 12  8  1  0
 13 16  1  0
 13 26  2  0
 14  1  2  0
 15  1  2  0
 16 18  2  0
 17 22  1  0
 17 46  1  0
 18 12  1  0
 18 47  1  0
 19  7  1  0
 19 48  1  0
 20  9  1  0
 20 49  1  0
 21  5  1  0
 21 50  1  0
 22 21  2  0
 23  9  2  0
 24  8  2  0
 25 12  2  0
 25 51  1  0
 26 25  1  0
 26 52  1  0
 27 10  2  0
 28 19  2  0
 28 22  1  0
 28 53  1  0
 29  4  1  0
 29 54  1  0
 29 55  1  0
 29 56  1  0
 30 16  1  0
 31 20  1  0
 31 57  1  0
 32 10  1  0
 32 58  1  0
 33 27  1  0
 33 59  1  0
 33 60  1  0
 33 61  1  0
 34 27  1  0
 34 62  1  0
 35 30  1  0
 35 63  1  0
 35 64  1  0
 35 65  1  0
 36 31  1  0
 36 66  1  0
 36 67  1  0
 37 31  1  0
 37 68  1  0
 37 69  1  0
 38 32  2  0
 38 70  1  0
 39 34  2  0
 39 38  1  0
 39 71  1  0
 40 37  1  0
 40 41  1  0
 40 72  1  0
 40 73  1  0
 41 36  1  0
 41 74  1  0
 41 75  1  0
M  END
> <Name>
CHEMBL431348

> <Clean Energy>
74.030296

> <chembl_id>
CHEMBL431348

> <chembl_pref_name>
None

> <efficacy>
0.199430199

> <Forcefield>
MMFF

> <ForcefieldBase>
MMFF

> <ForcefieldFFML>
<?xml version="1.0" encoding="UTF-8"?>
<!DOCTYPE ffml SYSTEM "Ffml.dtd">
<ffml version="1.0">
<forcefield name="MMFF" derivedFrom="MMFF" base="MMFF">
<atomTypes>
<atomType
name="S100"
element="S"
mass="32.066"
annotation=""/>
<atomType
name="N101"
element="N"
mass="14.007"
annotation=""/>
<atomType
name="C102"
element="C"
mass="12.011"
annotation=""/>
<atomType
name="O103"
element="O"
mass="16"
annotation=""/>
<atomType
name="H104"
element="H"
mass="1.008"
annotation=""/>
</atomTypes>
<parameters>
</parameters>
</forcefield>
</ffml>

> <Initial Potential Energy>
94.70351

> <Initial RMS Gradient>
33.01115

> <Minimization Criteria>
CONJUG> Minimization exiting with gradient tolerance ( 0.0100000) satisfied.

> <CHARMm Energy>
-82.9347

> <Potential Energy>
-82.9347

> <RMS Gradient>
0.00915

> <Bond Energy>
9.42577

> <Angle Energy>
24.84209

> <STRBend>
-0.14894

> <Dihedral Energy>
-3.37566

> <OOPLane>
0.13282

> <Van der Waals Energy>
71.49675

> <Electrostatic Energy>
-185.30754

> <Hydrogen Bond Energy>
0

> <Solvation Free Energy>
0

> <HasGasteigerCharges>
true

> <REMARK99>
REMARK  99  MacroMolecule created from Mol2 file
REMARK  99  CHEMBL431348
REMARK  99  PROTEIN
REMARK  99  GASTEIGER
REMARK  99
REMARK  99

$$$$
CHEMBL4449414
  SciTegic05292516403D

 53 56  0  0  0  0            999 V2000
    1.3608  -19.7033    0.6586 C   0  0
    1.5437  -20.8617   -0.0925 C   0  0
    2.8019  -21.2021   -0.6062 C   0  0
    2.4508  -18.8593    0.9131 C   0  0
    3.7340  -19.1743    0.4208 C   0  0
    3.8816  -20.3439   -0.3356 C   0  0
    5.2159  -20.3636   -0.7020 N   0  0
    5.8221  -19.2496   -0.1565 C   0  0
    4.9441  -18.5283    0.5112 N   0  0
    5.8238  -21.2912   -1.6543 C   0  0
    6.9097  -22.1825   -1.0949 C   0  0
    6.8251  -22.7752    0.1697 C   0  0
    7.8245  -23.6537    0.6137 C   0  0
    8.9278  -23.9816   -0.1936 C   0  0
    9.0051  -23.3921   -1.4618 C   0  0
    8.0112  -22.5084   -1.9053 C   0  0
    9.9358  -24.9612    0.2604 C   0  0
    9.5218  -26.2910    0.4819 C   0  0
   10.4178  -27.2817    0.8962 C   0  0
   11.7570  -26.9725    1.1023 C   0  0
   12.1974  -25.6677    0.8888 C   0  0
   11.3027  -24.6675    0.4600 C   0  0
   11.8463  -23.2960    0.2837 C   0  0
   13.0343  -23.1898   -0.3873 N   0  0
   11.2700  -22.3036    0.7061 O   0  0
    7.2779  -18.9305   -0.3213 C   0  0
    7.6334  -17.5321    0.1869 C   0  0
    9.1116  -17.2315   -0.0059 C   0  0
    2.2535  -17.6464    1.6967 N   0  3
    3.1611  -17.3120    2.4709 O   0  5
    1.1614  -17.0598    1.5777 O   0  0
    0.3747  -19.4634    1.0466 H   0  0
    0.6927  -21.5124   -0.2882 H   0  0
    2.9140  -22.1058   -1.1974 H   0  0
    5.0372  -21.9220   -2.0801 H   0  0
    6.2123  -20.6687   -2.4698 H   0  0
    5.9866  -22.5645    0.8310 H   0  0
    7.7356  -24.0860    1.6093 H   0  0
    9.8390  -23.6222   -2.1219 H   0  0
    8.1074  -22.0813   -2.9020 H   0  0
    8.4842  -26.5767    0.3192 H   0  0
   10.0547  -28.2918    1.0630 H   0  0
   12.4503  -27.7381    1.4415 H   0  0
   13.2354  -25.4188    1.0908 H   0  0
   13.5111  -23.9719   -0.8098 H   0  0
   13.4087  -22.2576   -0.5085 H   0  0
    7.8686  -19.6739    0.2267 H   0  0
    7.5507  -19.0038   -1.3804 H   0  0
    7.0409  -16.7765   -0.3433 H   0  0
    7.3861  -17.4429    1.2518 H   0  0
    9.3464  -16.2295    0.3666 H   0  0
    9.3852  -17.2730   -1.0650 H   0  0
    9.7322  -17.9507    0.5382 H   0  0
  1  2  2  0
  1 32  1  0
  2  3  1  0
  2 33  1  0
  3  6  2  0
  3 34  1  0
  4  1  1  0
  4 29  1  0
  5  4  2  0
  5  6  1  0
  6  7  1  0
  7  8  1  0
  7 10  1  0
  8  9  2  0
  8 26  1  0
  9  5  1  0
 10 11  1  0
 10 35  1  0
 10 36  1  0
 11 12  2  0
 12 13  1  0
 12 37  1  0
 13 14  2  0
 13 38  1  0
 14 15  1  0
 14 17  1  0
 15 16  2  0
 15 39  1  0
 16 11  1  0
 16 40  1  0
 17 18  2  0
 18 19  1  0
 18 41  1  0
 19 20  2  0
 19 42  1  0
 20 21  1  0
 20 43  1  0
 21 22  2  0
 21 44  1  0
 22 17  1  0
 22 23  1  0
 23 24  1  0
 23 25  2  0
 24 45  1  0
 24 46  1  0
 26 27  1  0
 26 47  1  0
 26 48  1  0
 27 28  1  0
 27 49  1  0
 27 50  1  0
 28 51  1  0
 28 52  1  0
 28 53  1  0
 29 30  1  0
 29 31  2  0
M  CHG  2  29   1  30  -1
M  END
> <Name>
CHEMBL4449414

> <Clean Energy>
45.639

> <chembl_id>
CHEMBL4449414

> <chembl_pref_name>
None

> <efficacy>
0.067901235

> <Forcefield>
MMFF

> <ForcefieldBase>
MMFF

> <ForcefieldFFML>
<?xml version="1.0" encoding="UTF-8"?>
<!DOCTYPE ffml SYSTEM "Ffml.dtd">
<ffml version="1.0">
<forcefield name="MMFF" derivedFrom="MMFF" base="MMFF">
<atomTypes>
<atomType
name="C100"
element="C"
mass="12.011"
annotation=""/>
<atomType
name="N101"
element="N"
mass="14.007"
annotation=""/>
<atomType
name="O102"
element="O"
mass="16"
annotation=""/>
<atomType
name="H103"
element="H"
mass="1.008"
annotation=""/>
</atomTypes>
<parameters>
</parameters>
</forcefield>
</ffml>

> <Initial Potential Energy>
261.56847

> <Initial RMS Gradient>
41.1763

> <Minimization Criteria>
STEEPD> Minimization exiting with gradient tolerance ( 3.0000000) satisfied.

> <CHARMm Energy>
95.29149

> <Potential Energy>
95.29149

> <RMS Gradient>
0.02692

> <Bond Energy>
8.08542

> <Angle Energy>
11.89871

> <STRBend>
0.38459

> <Dihedral Energy>
9.7504

> <OOPLane>
0.20282

> <Van der Waals Energy>
56.61913

> <Electrostatic Energy>
8.35041

> <Hydrogen Bond Energy>
0

> <Solvation Free Energy>
0

> <HasGasteigerCharges>
true

> <REMARK99>
REMARK  99  MacroMolecule created from Mol2 file
REMARK  99  CHEMBL4449414
REMARK  99  PROTEIN
REMARK  99  GASTEIGER
REMARK  99
REMARK  99

$$$$
CHEMBL472246
  SciTegic05292516403D

 42 44  0  0  0  0            999 V2000
   19.0572  -12.0475    1.5419 C   0  0
   18.7599  -12.1449    0.1730 C   0  0
   19.6046  -12.9367   -0.6232 C   0  0
   20.7019  -13.6115   -0.0704 C   0  0
   20.9783  -13.5007    1.2904 C   0  0
   20.1552  -12.7159    2.0951 C   0  0
   10.6712   -7.4539    1.9518 C   0  0
    9.7304   -8.4443    2.2289 C   0  0
    9.5611   -9.5181    1.3580 C   0  0
   10.3434   -9.6009    0.2044 C   0  0
   11.3049   -8.6250   -0.0670 C   0  0
   11.4562   -7.5404    0.7982 C   0  0
    8.7657   -8.3340    3.6488 Cl  0  0
   12.0045   -8.7891   -1.2298 O   0  0
   13.4031   -8.4916   -1.1678 C   0  0  2  0  0  0
   13.7332   -7.0584   -1.6136 C   0  0
   14.1022   -9.4891   -2.1164 C   0  0
   15.0379   -6.7311   -1.4085 O   0  0
   12.9367   -6.2546   -2.0765 O   0  0
   15.3233  -10.1462   -1.5067 C   0  0
   16.6023   -9.9199   -2.0281 C   0  0
   17.7200  -10.5653   -1.4803 C   0  0
   17.5911  -11.4515   -0.3990 C   0  0
   16.3038  -11.6667    0.1182 C   0  0
   15.1849  -11.0286   -0.4285 C   0  0
   18.4332  -11.4380    2.1932 H   0  0
   19.4042  -13.0492   -1.6871 H   0  0
   21.3353  -14.2244   -0.7066 H   0  0
   21.8299  -14.0225    1.7206 H   0  0
   20.3589  -12.6132    3.1566 H   0  0
   10.7902   -6.6055    2.6207 H   0  0
    8.8234  -10.2879    1.5668 H   0  0
   10.2110  -10.4341   -0.4814 H   0  0
   12.1550   -6.7375    0.5856 H   0  0
   13.7635   -8.6109   -0.1369 H   0  0
   13.4142  -10.2949   -2.4067 H   0  0
   14.3832   -8.9970   -3.0568 H   0  0
   15.5825   -7.4344   -1.0010 H   0  0
   16.7456   -9.2560   -2.8790 H   0  0
   18.7026  -10.3710   -1.9078 H   0  0
   16.1598  -12.3618    0.9441 H   0  0
   14.2016  -11.2470   -0.0144 H   0  0
  1  2  2  0
  1 26  1  0
  2  3  1  0
  3  4  2  0
  3 27  1  0
  4  5  1  0
  4 28  1  0
  5  6  2  0
  5 29  1  0
  6  1  1  0
  6 30  1  0
  7  8  2  0
  7 31  1  0
  8  9  1  0
  8 13  1  0
  9 10  2  0
  9 32  1  0
 10 11  1  0
 10 33  1  0
 11 12  2  0
 11 14  1  0
 12  7  1  0
 12 34  1  0
 14 15  1  0
 15 16  1  0
 15 17  1  0
 15 35  1  0
 16 18  1  0
 16 19  2  0
 17 20  1  0
 17 36  1  0
 17 37  1  0
 18 38  1  0
 20 21  2  0
 21 22  1  0
 21 39  1  0
 22 23  2  0
 22 40  1  0
 23  2  1  0
 23 24  1  0
 24 25  2  0
 24 41  1  0
 25 20  1  0
 25 42  1  0
M  END
> <Name>
CHEMBL472246

> <Clean Energy>
21.8815

> <chembl_id>
CHEMBL472246

> <chembl_pref_name>
None

> <efficacy>
0.4

> <Forcefield>
MMFF

> <ForcefieldBase>
MMFF

> <ForcefieldFFML>
<?xml version="1.0" encoding="UTF-8"?>
<!DOCTYPE ffml SYSTEM "Ffml.dtd">
<ffml version="1.0">
<forcefield name="MMFF" derivedFrom="MMFF" base="MMFF">
<atomTypes>
<atomType
name="C100"
element="C"
mass="12.011"
annotation=""/>
<atomType
name="Cl101"
element="Cl"
mass="35.453"
annotation=""/>
<atomType
name="O102"
element="O"
mass="16"
annotation=""/>
<atomType
name="H103"
element="H"
mass="1.008"
annotation=""/>
</atomTypes>
<parameters>
</parameters>
</forcefield>
</ffml>

> <Initial Potential Energy>
226.63884

> <Initial RMS Gradient>
54.85102

> <Minimization Criteria>
CONJUG> Minimization exiting with gradient tolerance ( 0.0100000) satisfied.

> <CHARMm Energy>
78.97615

> <Potential Energy>
78.97615

> <RMS Gradient>
0.00972

> <Bond Energy>
6.26981

> <Angle Energy>
8.02451

> <STRBend>
-0.25104

> <Dihedral Energy>
8.00822

> <OOPLane>
0.05755

> <Van der Waals Energy>
52.61922

> <Electrostatic Energy>
4.24789

> <Hydrogen Bond Energy>
0

> <Solvation Free Energy>
0

> <HasGasteigerCharges>
true

> <REMARK99>
REMARK  99  MacroMolecule created from Mol2 file
REMARK  99  CHEMBL472246
REMARK  99  PROTEIN
REMARK  99  GASTEIGER
REMARK  99
REMARK  99

$$$$
CHEMBL556073
  SciTegic05292516403D

 55 58  0  0  0  0            999 V2000
    2.2288   -1.1872    0.5200 C   0  0
    1.8294   -2.3639   -0.0953 C   0  0
    0.4745   -2.6529   -0.3098 C   0  0
    1.2577   -0.2582    0.8961 C   0  0
   -0.1164   -0.5173    0.6829 C   0  0
   -0.5013   -1.7330    0.1152 C   0  0
   -1.9011   -1.7521    0.0491 N   0  0
   -2.3662   -0.4924    0.4434 C   0  0
   -1.2902    0.2679    0.8819 C   0  0
   -3.8136   -0.1189    0.4124 C   0  0
   -1.3191    1.6491    1.4648 C   0  0
   -1.3529    2.6833    0.3563 C   0  0
   -1.9683    3.9195    0.6284 C   0  0
   -1.9746    4.9616   -0.3069 C   0  0
   -1.3522    4.7768   -1.5375 C   0  0
   -0.7247    3.5643   -1.8239 C   0  0
   -0.7145    2.5333   -0.8835 C   0  0
   -2.5846    6.1098    0.1192 O   0  0
   -2.8358    7.1180   -0.8700 C   0  0
   -3.5170    8.2932   -0.2001 C   0  0
   -4.0075    9.2331   -0.8104 O   0  0
   -3.5021    8.2391    1.1546 O   0  0
   -2.7074   -2.8533   -0.3614 C   0  0
   -3.8478   -2.6175   -0.7584 O   0  0
   -2.2917   -4.2728   -0.3428 C   0  0
   -1.7536   -4.8489    0.8152 C   0  0
   -1.3867   -6.1968    0.8098 C   0  0
   -1.5682   -6.9613   -0.3433 C   0  0
   -2.1205   -6.3932   -1.4915 C   0  0
   -2.4952   -5.0487   -1.4896 C   0  0
   -1.1144   -8.6205   -0.3460 Cl  0  0
    3.5148   -0.8014    0.7680 O   0  0
    4.5096   -1.8172    0.7357 C   0  0
    4.7183   -2.2659   -0.5228 F   0  0
    5.6775   -1.3071    1.1894 F   0  0
    4.1802   -2.8619    1.5286 F   0  0
    2.5488   -3.1007   -0.4439 H   0  0
    0.2235   -3.5813   -0.8166 H   0  0
    1.5616    0.6928    1.3292 H   0  0
   -3.9792    0.8784    0.8310 H   0  0
   -4.4111   -0.8192    1.0046 H   0  0
   -4.1859   -0.1006   -0.6166 H   0  0
   -2.1996    1.7501    2.1107 H   0  0
   -0.4394    1.8313    2.0923 H   0  0
   -2.4451    4.0829    1.5935 H   0  0
   -1.3106    5.5514   -2.2929 H   0  0
   -0.2250    3.4317   -2.7811 H   0  0
   -0.1953    1.6135   -1.1423 H   0  0
   -1.8931    7.4868   -1.2870 H   0  0
   -3.5059    6.7241   -1.6410 H   0  0
   -3.0714    7.3971    1.4306 H   0  0
   -1.6216   -4.2656    1.7235 H   0  0
   -0.9660   -6.6460    1.7063 H   0  0
   -2.2657   -6.9897   -2.3876 H   0  0
   -2.9426   -4.6051   -2.3773 H   0  0
  1  2  2  0
  1 32  1  0
  2  3  1  0
  2 37  1  0
  3  6  2  0
  3 38  1  0
  4  1  1  0
  4 39  1  0
  5  4  2  0
  5  6  1  0
  6  7  1  0
  7  8  1  0
  7 23  1  0
  8  9  2  0
  8 10  1  0
  9  5  1  0
  9 11  1  0
 10 40  1  0
 10 41  1  0
 10 42  1  0
 11 12  1  0
 11 43  1  0
 11 44  1  0
 12 13  2  0
 13 14  1  0
 13 45  1  0
 14 15  2  0
 14 18  1  0
 15 16  1  0
 15 46  1  0
 16 17  2  0
 16 47  1  0
 17 12  1  0
 17 48  1  0
 18 19  1  0
 19 20  1  0
 19 49  1  0
 19 50  1  0
 20 21  2  0
 20 22  1  0
 22 51  1  0
 23 24  2  0
 23 25  1  0
 25 26  2  0
 26 27  1  0
 26 52  1  0
 27 28  2  0
 27 53  1  0
 28 29  1  0
 28 31  1  0
 29 30  2  0
 29 54  1  0
 30 25  1  0
 30 55  1  0
 32 33  1  0
 33 34  1  0
 33 35  1  0
 33 36  1  0
M  END
> <Name>
CHEMBL556073

> <Clean Energy>
55.2854

> <chembl_id>
CHEMBL556073

> <chembl_pref_name>
None

> <efficacy>
0.3

> <Forcefield>
MMFF

> <ForcefieldBase>
MMFF

> <ForcefieldFFML>
<?xml version="1.0" encoding="UTF-8"?>
<!DOCTYPE ffml SYSTEM "Ffml.dtd">
<ffml version="1.0">
<forcefield name="MMFF" derivedFrom="MMFF" base="MMFF">
<atomTypes>
<atomType
name="C100"
element="C"
mass="12.011"
annotation=""/>
<atomType
name="N101"
element="N"
mass="14.007"
annotation=""/>
<atomType
name="O102"
element="O"
mass="16"
annotation=""/>
<atomType
name="Cl103"
element="Cl"
mass="35.453"
annotation=""/>
<atomType
name="F104"
element="F"
mass="18.998"
annotation=""/>
<atomType
name="H105"
element="H"
mass="1.008"
annotation=""/>
</atomTypes>
<parameters>
</parameters>
</forcefield>
</ffml>

> <Initial Potential Energy>
880.72744

> <Initial RMS Gradient>
311.70354

> <Minimization Criteria>
CONJUG> Minimization exiting with gradient tolerance ( 0.0100000) satisfied.

> <CHARMm Energy>
119.30424

> <Potential Energy>
119.30424

> <RMS Gradient>
0.00972

> <Bond Energy>
8.08907

> <Angle Energy>
22.53075

> <STRBend>
-0.51509

> <Dihedral Energy>
8.36544

> <OOPLane>
0.13388

> <Van der Waals Energy>
67.03335

> <Electrostatic Energy>
13.66683

> <Hydrogen Bond Energy>
0

> <Solvation Free Energy>
0

> <HasGasteigerCharges>
true

> <REMARK99>
REMARK  99  MacroMolecule created from Mol2 file
REMARK  99  CHEMBL556073
REMARK  99  PROTEIN
REMARK  99  GASTEIGER
REMARK  99
REMARK  99

$$$$
CHEMBL1784954
  SciTegic05292516403D

 44 46  0  0  0  0            999 V2000
   -6.3899   -1.2781    0.5694 C   0  0
   -6.5408   -2.1211   -0.5297 C   0  0
   -5.6199   -2.0893   -1.5734 C   0  0
   -4.5343   -1.2143   -1.5127 C   0  0
   -4.3711   -0.3527   -0.4147 C   0  0
   -5.3090   -0.3984    0.6288 C   0  0
   -3.1900    0.5899   -0.3515 C   0  0
   -2.0730   -0.1143    0.1892 O   0  0
   -0.8547    0.5053    0.1271 C   0  0
    0.2355   -0.3158    0.4213 C   0  0
    1.5605    0.1570    0.3580 C   0  0
    1.7959    1.5056    0.0347 C   0  0
    0.6863    2.3328   -0.2288 C   0  0
   -0.6246    1.8405   -0.1816 C   0  0
    3.1805    2.0733   -0.2018 C   0  0
    4.1569    2.0081    0.9479 C   0  0
    4.8023    0.8198    1.0484 O   0  0
    4.4085    2.9412    1.6984 O   0  0
    2.6214   -0.7012    0.7391 N   0  0
    2.7613   -2.0757    0.3877 C   0  0
    2.9419   -3.0384    1.4039 C   0  0
    3.0491   -4.4006    1.1105 C   0  0
    2.9803   -4.8338   -0.2105 C   0  0
    2.8081   -3.9045   -1.2346 C   0  0
    2.6972   -2.5387   -0.9423 C   0  0
    2.5575   -1.4602   -2.2896 Cl  0  0
    3.0051   -2.5580    3.0655 Cl  0  0
   -7.1257   -1.3063    1.3719 H   0  0
   -7.3893   -2.8005   -0.5765 H   0  0
   -5.7581   -2.7471   -2.4293 H   0  0
   -3.8100   -1.2057   -2.3244 H   0  0
   -5.1988    0.2503    1.4951 H   0  0
   -2.9741    0.9534   -1.3646 H   0  0
   -3.4369    1.4490    0.2844 H   0  0
    0.0396   -1.3496    0.6986 H   0  0
    0.8354    3.3786   -0.4964 H   0  0
   -1.4367    2.5279   -0.3945 H   0  0
    3.6270    1.5845   -1.0772 H   0  0
    3.1127    3.1326   -0.4833 H   0  0
    4.4074    0.1600    0.4344 H   0  0
    2.8659   -0.5435    1.7256 H   0  0
    3.1899   -5.1266    1.9084 H   0  0
    3.0739   -5.8924   -0.4439 H   0  0
    2.7768   -4.2493   -2.2665 H   0  0
  1  2  2  0
  1 28  1  0
  2  3  1  0
  2 29  1  0
  3  4  2  0
  3 30  1  0
  4  5  1  0
  4 31  1  0
  5  6  2  0
  5  7  1  0
  6  1  1  0
  6 32  1  0
  7  8  1  0
  7 33  1  0
  7 34  1  0
  8  9  1  0
  9 10  2  0
 10 11  1  0
 10 35  1  0
 11 12  2  0
 11 19  1  0
 12 13  1  0
 12 15  1  0
 13 14  2  0
 13 36  1  0
 14  9  1  0
 14 37  1  0
 15 16  1  0
 15 38  1  0
 15 39  1  0
 16 17  1  0
 16 18  2  0
 17 40  1  0
 19 20  1  0
 19 41  1  0
 20 21  2  0
 21 22  1  0
 21 27  1  0
 22 23  2  0
 22 42  1  0
 23 24  1  0
 23 43  1  0
 24 25  2  0
 24 44  1  0
 25 20  1  0
 25 26  1  0
M  END
> <Name>
CHEMBL1784954

> <Clean Energy>
25.6446

> <chembl_id>
CHEMBL1784954

> <chembl_pref_name>
None

> <efficacy>
0.35

> <Forcefield>
MMFF

> <ForcefieldBase>
MMFF

> <ForcefieldFFML>
<?xml version="1.0" encoding="UTF-8"?>
<!DOCTYPE ffml SYSTEM "Ffml.dtd">
<ffml version="1.0">
<forcefield name="MMFF" derivedFrom="MMFF" base="MMFF">
<atomTypes>
<atomType
name="C100"
element="C"
mass="12.011"
annotation=""/>
<atomType
name="O101"
element="O"
mass="16"
annotation=""/>
<atomType
name="N102"
element="N"
mass="14.007"
annotation=""/>
<atomType
name="Cl103"
element="Cl"
mass="35.453"
annotation=""/>
<atomType
name="H104"
element="H"
mass="1.008"
annotation=""/>
</atomTypes>
<parameters>
</parameters>
</forcefield>
</ffml>

> <Initial Potential Energy>
230.10841

> <Initial RMS Gradient>
43.02288

> <Minimization Criteria>
CONJUG> Minimization exiting with gradient tolerance ( 0.0100000) satisfied.

> <CHARMm Energy>
82.98314

> <Potential Energy>
82.98314

> <RMS Gradient>
0.00778

> <Bond Energy>
6.29107

> <Angle Energy>
11.23555

> <STRBend>
0.12586

> <Dihedral Energy>
22.68505

> <OOPLane>
2.67892

> <Van der Waals Energy>
55.79341

> <Electrostatic Energy>
-15.82671

> <Hydrogen Bond Energy>
0

> <Solvation Free Energy>
0

> <HasGasteigerCharges>
true

> <REMARK99>
REMARK  99  MacroMolecule created from Mol2 file
REMARK  99  CHEMBL1784954
REMARK  99  PROTEIN
REMARK  99  GASTEIGER
REMARK  99
REMARK  99

$$$$
CHEMBL247719
  SciTegic05292516403D

 67 69  0  0  0  0            999 V2000
   -8.5285   -7.7323   -0.3501 C   0  0
   -7.3121   -7.1245   -0.0302 C   0  0
   -7.1525   -5.7336   -0.1324 C   0  0
   -8.2439   -4.9660   -0.5653 C   0  0
   -9.4613   -5.5729   -0.8853 C   0  0
   -9.6018   -6.9548   -0.7772 C   0  0
   -5.8733   -5.1253    0.2193 C   0  0
   -4.7557   -5.6976    0.6326 N   0  0
   -3.8835   -4.6478    0.8505 C   0  0
   -4.5198   -3.4622    0.5452 C   0  0
   -5.7825   -3.7601    0.1194 O   0  0
   -4.1648   -2.0335    0.6014 C   0  0
   -2.5269   -4.8797    1.4165 C   0  0
   -1.3713   -4.5688    0.4608 C   0  0
   -0.1558   -4.7146    1.2059 O   0  0
    1.0274   -4.3783    0.6087 C   0  0
    2.1376   -4.3902    1.4599 C   0  0
    3.4160   -4.0679    0.9876 C   0  0
    3.6120   -3.7409   -0.3599 C   0  0
    2.4954   -3.7281   -1.2105 C   0  0
    1.2137   -4.0463   -0.7307 C   0  0
    4.9942   -3.3771   -0.8823 C   0  0
    6.0190   -4.4228   -0.6543 N   0  0
    7.3838   -3.9647   -1.0396 C   0  0
    5.6697   -5.6479   -1.4538 C   0  0
    6.3301   -6.8708   -0.8186 C   0  0
    6.6108   -7.9015   -1.4109 O   0  0
    6.5828   -6.6806    0.5040 O   0  0
    7.9751   -2.8635   -0.1103 C   0  0
    9.4835   -3.1512    0.0973 C   0  0
    7.7422   -1.4494   -0.6963 C   0  0
    7.3779   -0.4179    0.3653 C   0  0
   10.1855   -2.2077    1.0616 C   0  0
   -8.6347   -8.8105   -0.2651 H   0  0
   -6.4792   -7.7417    0.3044 H   0  0
   -8.1548   -3.8854   -0.6553 H   0  0
  -10.2978   -4.9646   -1.2177 H   0  0
  -10.5480   -7.4269   -1.0253 H   0  0
   -4.9876   -1.4450    1.0189 H   0  0
   -3.9454   -1.6567   -0.4021 H   0  0
   -3.2833   -1.8710    1.2289 H   0  0
   -2.4138   -4.2771    2.3274 H   0  0
   -2.4394   -5.9213    1.7515 H   0  0
   -1.3829   -5.2691   -0.3827 H   0  0
   -1.4566   -3.5419    0.0859 H   0  0
    2.0041   -4.6508    2.5075 H   0  0
    4.2572   -4.0719    1.6785 H   0  0
    2.6097   -3.4731   -2.2623 H   0  0
    0.3871   -4.0321   -1.4327 H   0  0
    4.9428   -3.1209   -1.9485 H   0  0
    5.2622   -2.4628   -0.3449 H   0  0
    8.0473   -4.8371   -0.9917 H   0  0
    7.4003   -3.6346   -2.0870 H   0  0
    4.5969   -5.8634   -1.4373 H   0  0
    5.9940   -5.5481   -2.4954 H   0  0
    6.2430   -5.7763    0.7125 H   0  0
    7.4899   -2.9436    0.8720 H   0  0
    9.5981   -4.1693    0.4912 H   0  0
   10.0040   -3.1285   -0.8683 H   0  0
    8.6323   -1.1092   -1.2389 H   0  0
    6.9349   -1.4583   -1.4368 H   0  0
    7.2145    0.5584   -0.1023 H   0  0
    8.1648   -0.3018    1.1141 H   0  0
    6.4556   -0.6991    0.8833 H   0  0
   11.2043   -2.5600    1.2538 H   0  0
    9.6591   -2.1592    2.0198 H   0  0
   10.2642   -1.1980    0.6492 H   0  0
  1  2  2  0
  1 34  1  0
  2  3  1  0
  2 35  1  0
  3  4  2  0
  3  7  1  0
  4  5  1  0
  4 36  1  0
  5  6  2  0
  5 37  1  0
  6  1  1  0
  6 38  1  0
  7  8  2  0
  8  9  1  0
  9 10  2  0
  9 13  1  0
 10 11  1  0
 10 12  1  0
 11  7  1  0
 12 39  1  0
 12 40  1  0
 12 41  1  0
 13 14  1  0
 13 42  1  0
 13 43  1  0
 14 15  1  0
 14 44  1  0
 14 45  1  0
 15 16  1  0
 16 17  2  0
 17 18  1  0
 17 46  1  0
 18 19  2  0
 18 47  1  0
 19 20  1  0
 19 22  1  0
 20 21  2  0
 20 48  1  0
 21 16  1  0
 21 49  1  0
 22 23  1  0
 22 50  1  0
 22 51  1  0
 23 24  1  0
 23 25  1  0
 24 29  1  0
 24 52  1  0
 24 53  1  0
 25 26  1  0
 25 54  1  0
 25 55  1  0
 26 27  2  0
 26 28  1  0
 28 56  1  0
 29 30  1  0
 29 31  1  0
 29 57  1  0
 30 33  1  0
 30 58  1  0
 30 59  1  0
 31 32  1  0
 31 60  1  0
 31 61  1  0
 32 62  1  0
 32 63  1  0
 32 64  1  0
 33 65  1  0
 33 66  1  0
 33 67  1  0
M  END
> <Name>
CHEMBL247719

> <Clean Energy>
45.964699

> <chembl_id>
CHEMBL247719

> <chembl_pref_name>
None

> <efficacy>
0.32

> <Forcefield>
MMFF

> <ForcefieldBase>
MMFF

> <ForcefieldFFML>
<?xml version="1.0" encoding="UTF-8"?>
<!DOCTYPE ffml SYSTEM "Ffml.dtd">
<ffml version="1.0">
<forcefield name="MMFF" derivedFrom="MMFF" base="MMFF">
<atomTypes>
<atomType
name="C100"
element="C"
mass="12.011"
annotation=""/>
<atomType
name="N101"
element="N"
mass="14.007"
annotation=""/>
<atomType
name="O102"
element="O"
mass="16"
annotation=""/>
<atomType
name="H103"
element="H"
mass="1.008"
annotation=""/>
</atomTypes>
<parameters>
</parameters>
</forcefield>
</ffml>

> <Initial Potential Energy>
213.24055

> <Initial RMS Gradient>
26.57073

> <Minimization Criteria>
STEEPD> Minimization exiting with gradient tolerance ( 3.0000000) satisfied.

> <CHARMm Energy>
85.20165

> <Potential Energy>
85.20165

> <RMS Gradient>
0.04229

> <Bond Energy>
8.18084

> <Angle Energy>
15.00155

> <STRBend>
0.997

> <Dihedral Energy>
-6.28251

> <OOPLane>
0.04323

> <Van der Waals Energy>
58.30204

> <Electrostatic Energy>
8.95951

> <Hydrogen Bond Energy>
0

> <Solvation Free Energy>
0

> <HasGasteigerCharges>
true

> <REMARK99>
REMARK  99  MacroMolecule created from Mol2 file
REMARK  99  CHEMBL247719
REMARK  99  PROTEIN
REMARK  99  GASTEIGER
REMARK  99
REMARK  99

$$$$
CHEMBL1945214
  SciTegic05292516403D

 63 67  0  0  0  0            999 V2000
   13.7424   -3.2831    0.1010 C   0  0
   13.4130   -4.4702   -0.4591 C   0  0
   14.4025   -5.4874   -0.7744 C   0  0
   15.2139   -3.0234    0.3110 C   0  0
   15.5886   -2.1737    1.1230 O   0  0
   12.6646   -2.2988    0.4560 C   0  0
   13.0458   -0.9380    0.9738 C   0  0
   11.4775   -2.6047    0.3060 O   0  0
   12.1245   -4.8836   -0.7248 O   0  0
   16.1954   -3.7577   -0.6052 C   0  0  1  0  0  0
   15.7007   -5.1590   -0.8276 C   0  0
   16.7575   -6.0702   -0.8616 O   0  0
   16.3110   -2.9829   -1.9278 C   0  0
   17.5658   -4.0693   -0.0722 C   0  0
   17.8789   -5.4163   -0.3640 C   0  0
   19.1534   -5.9656   -0.1542 C   0  0
   20.1240   -5.0998    0.4165 C   0  0
   19.7857   -3.7659    0.7465 C   0  0
   18.5142   -3.2550    0.5004 C   0  0
   18.2798   -1.9559    0.8273 O   0  0
   21.3846   -5.6070    0.6412 O   0  0
   22.4067   -4.7010    1.0393 C   0  0
   19.4537   -7.3847   -0.5937 C   0  0
   18.6134   -8.0563   -1.1830 O   0  0
   20.7172   -7.8827   -0.3322 N   0  0
   21.1887   -9.1782   -0.7927 C   0  0
   22.6723   -9.3345   -0.5458 C   0  0
   25.4426   -9.3831   -0.1463 C   0  0
   24.8852   -8.3490   -0.8885 C   0  0
   23.5115   -8.3373   -1.0881 C   0  0
   24.6492  -10.4220    0.3748 C   0  0
   23.2431  -10.4128    0.1828 C   0  0
   22.5033  -11.4869    0.7351 C   0  0
   23.1245  -12.5262    1.4351 C   0  0
   24.5007  -12.5178    1.6124 C   0  0
   25.2562  -11.4720    1.0877 C   0  0
   25.5571   -7.2990   -1.4485 O   0  0
   26.9790   -7.3607   -1.4208 C   0  0
   14.0842   -6.5207   -0.8750 H   0  0
   12.1580   -0.2978    0.9864 H   0  0
   13.7805   -0.4693    0.3143 H   0  0
   13.4267   -1.0187    1.9946 H   0  0
   11.4748   -4.1836   -0.4610 H   0  0
   16.9491   -3.5003   -2.6548 H   0  0
   16.7425   -1.9882   -1.7623 H   0  0
   15.3322   -2.8325   -2.3983 H   0  0
   20.5033   -3.0854    1.1962 H   0  0
   17.3314   -1.8521    1.0594 H   0  0
   23.3479   -5.2587    1.0733 H   0  0
   22.2173   -4.3124    2.0449 H   0  0
   22.5289   -3.8918    0.3118 H   0  0
   21.3469   -7.2982    0.2069 H   0  0
   20.5754   -9.9247   -0.2861 H   0  0
   20.9810   -9.2658   -1.8658 H   0  0
   26.5098   -9.4029    0.0424 H   0  0
   23.0716   -7.5252   -1.6678 H   0  0
   21.4232  -11.5436    0.6267 H   0  0
   22.5296  -13.3416    1.8399 H   0  0
   24.9857  -13.3231    2.1567 H   0  0
   26.3335  -11.4842    1.2370 H   0  0
   27.3612   -6.5010   -1.9796 H   0  0
   27.3476   -8.2679   -1.9112 H   0  0
   27.3537   -7.2842   -0.3949 H   0  0
  1  2  2  0
  1  4  1  0
  1  6  1  0
  2  3  1  0
  2  9  1  0
  3 11  2  0
  3 39  1  0
  4  5  2  0
  6  7  1  0
  6  8  2  0
  7 40  1  0
  7 41  1  0
  7 42  1  0
  9 43  1  0
 10  4  1  0
 10 11  1  0
 10 13  1  0
 11 12  1  0
 12 15  1  0
 13 44  1  0
 13 45  1  0
 13 46  1  0
 14 10  1  0
 14 15  2  0
 15 16  1  0
 16 17  2  0
 16 23  1  0
 17 18  1  0
 17 21  1  0
 18 19  2  0
 18 47  1  0
 19 14  1  0
 19 20  1  0
 20 48  1  0
 21 22  1  0
 22 49  1  0
 22 50  1  0
 22 51  1  0
 23 24  2  0
 23 25  1  0
 25 26  1  0
 25 52  1  0
 26 27  1  0
 26 53  1  0
 26 54  1  0
 27 32  2  0
 28 29  1  0
 28 55  1  0
 29 30  2  0
 29 37  1  0
 30 27  1  0
 30 56  1  0
 31 28  2  0
 31 32  1  0
 32 33  1  0
 33 34  2  0
 33 57  1  0
 34 35  1  0
 34 58  1  0
 35 36  2  0
 35 59  1  0
 36 31  1  0
 36 60  1  0
 37 38  1  0
 38 61  1  0
 38 62  1  0
 38 63  1  0
M  END
> <Name>
CHEMBL1945214

> <Clean Energy>
59.4963

> <chembl_id>
CHEMBL1945214

> <chembl_pref_name>
None

> <efficacy>
0.32

> <Forcefield>
MMFF

> <ForcefieldBase>
MMFF

> <ForcefieldFFML>
<?xml version="1.0" encoding="UTF-8"?>
<!DOCTYPE ffml SYSTEM "Ffml.dtd">
<ffml version="1.0">
<forcefield name="MMFF" derivedFrom="MMFF" base="MMFF">
<atomTypes>
<atomType
name="C100"
element="C"
mass="12.011"
annotation=""/>
<atomType
name="O101"
element="O"
mass="16"
annotation=""/>
<atomType
name="N102"
element="N"
mass="14.007"
annotation=""/>
<atomType
name="H103"
element="H"
mass="1.008"
annotation=""/>
</atomTypes>
<parameters>
</parameters>
</forcefield>
</ffml>

> <Initial Potential Energy>
158.45951

> <Initial RMS Gradient>
27.91482

> <Minimization Criteria>
CONJUG> Minimization exiting with gradient tolerance ( 0.0100000) satisfied.

> <CHARMm Energy>
63.88076

> <Potential Energy>
63.88076

> <RMS Gradient>
0.00915

> <Bond Energy>
11.36997

> <Angle Energy>
36.64716

> <STRBend>
0.55474

> <Dihedral Energy>
5.90843

> <OOPLane>
0.46018

> <Van der Waals Energy>
86.22944

> <Electrostatic Energy>
-77.28918

> <Hydrogen Bond Energy>
0

> <Solvation Free Energy>
0

> <HasGasteigerCharges>
true

> <REMARK99>
REMARK  99  MacroMolecule created from Mol2 file
REMARK  99  CHEMBL1945214
REMARK  99  PROTEIN
REMARK  99  GASTEIGER
REMARK  99
REMARK  99

$$$$
CHEMBL2260200
  SciTegic05292516403D

 66 71  0  0  0  0            999 V2000
    3.7794   -8.6348   -1.3048 C   0  0
    3.3807   -9.6355   -0.4057 C   0  0
    4.2969  -10.6113    0.0266 C   0  0
    5.0958   -8.5666   -1.7751 C   0  0
    6.0146   -9.5303   -1.3398 C   0  0
    5.6089  -10.5255   -0.4534 C   0  0
    6.7431  -11.2766   -0.2520 N   0  0
    7.7494  -10.7198   -0.9934 C   0  0
    7.3350   -9.6735   -1.6674 N   0  0
    6.9157  -12.3924    0.6664 C   0  0
    6.0623  -13.5826    0.3409 C   0  0
    6.0574  -14.1428   -0.9421 C   0  0
    5.3226  -15.2983   -1.1985 C   0  0
    4.6038  -15.9263   -0.1742 C   0  0
    4.5919  -15.3499    1.1026 C   0  0
    5.3175  -14.1907    1.3600 C   0  0
    3.9248  -17.2007   -0.4025 C   0  0
    2.5342  -17.2222   -0.5787 C   0  0
    1.8587  -18.4344   -0.7199 C   0  0
    2.5627  -19.6474   -0.6782 C   0  0
    3.9494  -19.6463   -0.5196 C   0  0
    4.6192  -18.4272   -0.3863 C   0  0
    6.0826  -18.4500   -0.2228 C   0  0
    6.3630  -18.9790    0.9929 O   0  0
    6.8736  -18.0270   -1.0481 O   0  0
    7.7520  -18.9317    1.3136 C   0  0
    1.8816  -20.9602   -0.7850 C   0  0
    0.5401  -20.7725   -0.7950 O   0  0
    2.4697  -22.0286   -0.8313 O   0  0
   -0.2189  -21.9773   -0.8672 C   0  0
    1.9944   -9.7203    0.0542 C   0  0
    1.2687   -8.6851    0.6100 N   0  0
    1.2641  -10.8211    0.0092 N   0  0
    0.0139  -10.4612    0.4369 C   0  0
   -0.0157   -9.1260    0.8257 C   0  0
   -1.1721   -8.5073    1.3094 C   0  0
   -2.3269   -9.2926    1.3762 C   0  0
   -2.3251  -10.6315    0.9836 C   0  0
   -1.1557  -11.2342    0.5138 C   0  0
    1.7604   -7.3676    0.9390 C   0  0
    3.0605   -7.9099   -1.6789 H   0  0
    3.9806  -11.4169    0.6845 H   0  0
    5.4050   -7.7993   -2.4761 H   0  0
    8.7594  -11.1073   -1.0022 H   0  0
    7.9718  -12.6875    0.6581 H   0  0
    6.6928  -11.9971    1.6651 H   0  0
    6.6438  -13.7024   -1.7479 H   0  0
    5.3558  -15.7367   -2.1947 H   0  0
    4.0389  -15.8214    1.9126 H   0  0
    5.3112  -13.7769    2.3663 H   0  0
    1.9702  -16.2903   -0.5975 H   0  0
    0.7803  -18.4193   -0.8563 H   0  0
    4.5072  -20.5797   -0.4940 H   0  0
    8.1163  -17.8992    1.3038 H   0  0
    8.3266  -19.5524    0.6189 H   0  0
    7.8803  -19.3328    2.3229 H   0  0
   -0.0236  -22.6052    0.0077 H   0  0
    0.0075  -22.5184   -1.7911 H   0  0
   -1.2795  -21.7111   -0.8727 H   0  0
   -1.1918   -7.4664    1.6123 H   0  0
   -3.2494   -8.8460    1.7366 H   0  0
   -3.2508  -11.1971    1.0387 H   0  0
   -1.1426  -12.2734    0.2023 H   0  0
    1.1919   -6.9650    1.7811 H   0  0
    1.6372   -6.7268    0.0628 H   0  0
    2.8115   -7.4290    1.2308 H   0  0
  1  2  2  0
  1 41  1  0
  2  3  1  0
  2 31  1  0
  3  6  2  0
  3 42  1  0
  4  1  1  0
  4 43  1  0
  5  4  2  0
  5  6  1  0
  6  7  1  0
  7  8  1  0
  7 10  1  0
  8  9  2  0
  8 44  1  0
  9  5  1  0
 10 11  1  0
 10 45  1  0
 10 46  1  0
 11 12  2  0
 12 13  1  0
 12 47  1  0
 13 14  2  0
 13 48  1  0
 14 15  1  0
 14 17  1  0
 15 16  2  0
 15 49  1  0
 16 11  1  0
 16 50  1  0
 17 18  2  0
 18 19  1  0
 18 51  1  0
 19 20  2  0
 19 52  1  0
 20 21  1  0
 20 27  1  0
 21 22  2  0
 21 53  1  0
 22 17  1  0
 22 23  1  0
 23 24  1  0
 23 25  2  0
 24 26  1  0
 26 54  1  0
 26 55  1  0
 26 56  1  0
 27 28  1  0
 27 29  2  0
 28 30  1  0
 30 57  1  0
 30 58  1  0
 30 59  1  0
 31 32  1  0
 32 35  1  0
 32 40  1  0
 33 31  2  0
 34 33  1  0
 34 35  2  0
 35 36  1  0
 36 37  2  0
 36 60  1  0
 37 38  1  0
 37 61  1  0
 38 39  2  0
 38 62  1  0
 39 34  1  0
 39 63  1  0
 40 64  1  0
 40 65  1  0
 40 66  1  0
M  END
> <Name>
CHEMBL2260200

> <Clean Energy>
89.9972

> <chembl_id>
CHEMBL2260200

> <chembl_pref_name>
None

> <efficacy>
0.057

> <Forcefield>
MMFF

> <ForcefieldBase>
MMFF

> <ForcefieldFFML>
<?xml version="1.0" encoding="UTF-8"?>
<!DOCTYPE ffml SYSTEM "Ffml.dtd">
<ffml version="1.0">
<forcefield name="MMFF" derivedFrom="MMFF" base="MMFF">
<atomTypes>
<atomType
name="C100"
element="C"
mass="12.011"
annotation=""/>
<atomType
name="N101"
element="N"
mass="14.007"
annotation=""/>
<atomType
name="O102"
element="O"
mass="16"
annotation=""/>
<atomType
name="H103"
element="H"
mass="1.008"
annotation=""/>
</atomTypes>
<parameters>
</parameters>
</forcefield>
</ffml>

> <Initial Potential Energy>
779.72806

> <Initial RMS Gradient>
293.1288

> <Minimization Criteria>
STEEPD> Minimization exiting with gradient tolerance ( 3.0000000) satisfied.

> <CHARMm Energy>
103.16564

> <Potential Energy>
103.16564

> <RMS Gradient>
0.10467

> <Bond Energy>
7.1581

> <Angle Energy>
11.4897

> <STRBend>
-0.68256

> <Dihedral Energy>
20.89401

> <OOPLane>
0.14021

> <Van der Waals Energy>
77.62978

> <Electrostatic Energy>
-13.46361

> <Hydrogen Bond Energy>
0

> <Solvation Free Energy>
0

> <HasGasteigerCharges>
true

> <REMARK99>
REMARK  99  MacroMolecule created from Mol2 file
REMARK  99  CHEMBL2260200
REMARK  99  PROTEIN
REMARK  99  GASTEIGER
REMARK  99
REMARK  99

$$$$
CHEMBL4876536
  SciTegic05292516403D

 53 55  0  0  0  0            999 V2000
   37.6302   -1.5606    0.3072 C   0  0
   27.4888   -5.4029    0.4682 C   0  0
   27.4990   -6.7649    0.8415 C   0  0
   28.6937   -7.4832    0.9470 C   0  0
   28.6933   -4.7390    0.1979 C   0  0
   26.2375   -4.8478    0.4099 O   0  0
   29.8667   -5.4620    0.3064 C   0  0
   29.8577   -6.8023    0.6708 C   0  0
   31.2376   -7.2655    0.6810 C   0  0
   31.9986   -6.0439    0.3084 C   0  0
   31.1343   -4.9775    0.0782 O   0  0
   33.3351   -6.0265    0.2142 C   0  0
   34.1839   -4.8770   -0.1351 C   0  0
   31.6191   -8.3909    0.9252 O   0  0
   35.4269   -5.1278   -0.7353 C   0  0
   36.3183   -4.0858   -1.0319 C   0  0
   35.9607   -2.7777   -0.6806 C   0  0
   34.7028   -2.4885   -0.1323 C   0  0
   33.8383   -3.5525    0.1653 C   0  0
   34.2921   -1.0813    0.1979 C   0  0
   37.6459   -4.3956   -1.6607 C   0  0
   36.8583   -1.7581   -0.8764 O   0  0
   37.8466   -0.0827    0.6079 C   0  0
   38.2546    0.1378    1.8877 O   0  0
   37.7182    0.8406   -0.1827 O   0  0
   26.1562   -3.4758    0.0169 C   0  0
   24.6801   -3.0507    0.0044 C   0  0
   24.5584   -1.5555   -0.2824 C   0  0
   23.8760   -3.8554   -1.0194 C   0  0
   38.6164   -2.0127    0.1552 H   0  0
   37.1628   -2.0172    1.1904 H   0  0
   26.5548   -7.2651    1.0488 H   0  0
   28.7044   -8.5306    1.2284 H   0  0
   28.7439   -3.6957   -0.0883 H   0  0
   33.8698   -6.9564    0.4062 H   0  0
   35.7103   -6.1512   -0.9781 H   0  0
   32.8908   -3.3300    0.6500 H   0  0
   33.2017   -0.9918    0.2512 H   0  0
   34.6310   -0.3832   -0.5744 H   0  0
   34.7118   -0.7833    1.1635 H   0  0
   38.4267   -4.4251   -0.8946 H   0  0
   37.9066   -3.6440   -2.4129 H   0  0
   37.6255   -5.3645   -2.1708 H   0  0
   38.2745   -0.6711    2.4358 H   0  0
   26.7018   -2.8558    0.7392 H   0  0
   26.5875   -3.3433   -0.9834 H   0  0
   24.2502   -3.2552    0.9933 H   0  0
   23.5099   -1.2395   -0.2639 H   0  0
   24.9709   -1.3040   -1.2654 H   0  0
   25.0963   -0.9701    0.4709 H   0  0
   22.8265   -3.5423   -1.0201 H   0  0
   23.9009   -4.9256   -0.7897 H   0  0
   24.2709   -3.7164   -2.0315 H   0  0
  1 23  1  0
  1 30  1  0
  1 31  1  0
  2  3  2  0
  2  6  1  0
  3  4  1  0
  3 32  1  0
  4  8  2  0
  4 33  1  0
  5  2  1  0
  5 34  1  0
  6 26  1  0
  7  5  2  0
  7  8  1  0
  8  9  1  0
  9 10  1  0
  9 14  2  0
 10 11  1  0
 10 12  2  0
 11  7  1  0
 12 13  1  0
 12 35  1  0
 13 15  2  0
 15 16  1  0
 15 36  1  0
 16 17  2  0
 16 21  1  0
 17 18  1  0
 17 22  1  0
 18 19  2  0
 18 20  1  0
 19 13  1  0
 19 37  1  0
 20 38  1  0
 20 39  1  0
 20 40  1  0
 21 41  1  0
 21 42  1  0
 21 43  1  0
 22  1  1  0
 23 24  1  0
 23 25  2  0
 24 44  1  0
 26 27  1  0
 26 45  1  0
 26 46  1  0
 27 28  1  0
 27 29  1  0
 27 47  1  0
 28 48  1  0
 28 49  1  0
 28 50  1  0
 29 51  1  0
 29 52  1  0
 29 53  1  0
M  END
> <Name>
CHEMBL4876536

> <Clean Energy>
36.341099

> <chembl_id>
CHEMBL4876536

> <chembl_pref_name>
None

> <efficacy>
0.29

> <Forcefield>
MMFF

> <ForcefieldBase>
MMFF

> <ForcefieldFFML>
<?xml version="1.0" encoding="UTF-8"?>
<!DOCTYPE ffml SYSTEM "Ffml.dtd">
<ffml version="1.0">
<forcefield name="MMFF" derivedFrom="MMFF" base="MMFF">
<atomTypes>
<atomType
name="C100"
element="C"
mass="12.011"
annotation=""/>
<atomType
name="O101"
element="O"
mass="16"
annotation=""/>
<atomType
name="H102"
element="H"
mass="1.008"
annotation=""/>
</atomTypes>
<parameters>
</parameters>
</forcefield>
</ffml>

> <Initial Potential Energy>
148.10819

> <Initial RMS Gradient>
24.7047

> <Minimization Criteria>
STEEPD> Minimization exiting with gradient tolerance ( 3.0000000) satisfied.

> <CHARMm Energy>
86.66372

> <Potential Energy>
86.66372

> <RMS Gradient>
0.01861

> <Bond Energy>
4.66006

> <Angle Energy>
26.6917

> <STRBend>
0.15381

> <Dihedral Energy>
4.10991

> <OOPLane>
0.07572

> <Van der Waals Energy>
51.54914

> <Electrostatic Energy>
-0.57662

> <Hydrogen Bond Energy>
0

> <Solvation Free Energy>
0

> <HasGasteigerCharges>
true

> <REMARK99>
REMARK  99  MacroMolecule created from Mol2 file
REMARK  99  CHEMBL4876536
REMARK  99  PROTEIN
REMARK  99  GASTEIGER
REMARK  99
REMARK  99

$$$$
CHEMBL414836
  SciTegic05292516403D

 64 69  0  0  0  0            999 V2000
    7.4577    0.3524   -0.3707 N   0  0
    8.6807    0.6012    0.2037 C   0  0
    7.4816    2.5259    0.1488 N   0  0
    6.7376    1.5359   -0.3316 C   0  0
    8.6703    1.9487    0.5161 C   0  0
    7.1063   -0.9554   -0.8910 C   0  0  1  0  0  0
    3.5876   -6.1410    0.8964 C   0  0
    4.6924   -8.0249    0.8403 N   0  0
    3.4705   -7.5196    0.7959 N   0  0
    5.4837   -6.9533    0.9609 N   0  0
    9.6677   -0.2894    0.4189 N   0  0
    5.8557   -1.5725   -0.3287 C   0  0
    4.8724   -5.7593    1.0106 N   0  0
    2.4015   -5.2778    0.9203 C   0  0
    5.1900   -2.3003   -1.3233 C   0  0
    2.4094   -3.8893    0.6511 C   0  0
    3.6075   -3.1106    0.2993 C   0  0
    9.8100    2.4953    1.1259 C   0  0
    6.8533   -1.0179   -2.4108 C   0  0
    4.0718   -3.0673   -1.0262 C   0  0
    5.4168   -1.6032    0.9851 C   0  0
   10.7508    0.2513    1.0218 C   0  0
   10.8681    1.6018    1.3747 C   0  0
    5.9034   -2.2046   -2.6379 C   0  0
    4.2845   -2.3643    1.2905 C   0  0
    5.2922    1.6631   -0.7128 C   0  0
    1.1689   -5.8979    1.2357 C   0  0
    1.1850   -3.1860    0.7090 C   0  0
    9.9302    3.9358    1.5145 C   0  0
   11.8873   -0.6866    1.3123 C   0  0
    4.9075    3.1054   -1.0549 C   0  0
    3.4377    3.2051   -1.4639 C   0  0
   -0.0166   -3.8217    1.0240 C   0  0
   -0.0289   -5.1831    1.2877 C   0  0
    3.0461    4.6382   -1.7857 C   0  0
    7.9233   -1.6505   -0.6579 H   0  0
    6.4933   -7.0469    1.0161 H   0  0
    6.3866   -0.1009   -2.7874 H   0  0
    7.7869   -1.1342   -2.9728 H   0  0
    3.5738   -3.6436   -1.8021 H   0  0
    5.9473   -1.0737    1.7714 H   0  0
   11.7810    1.9702    1.8431 H   0  0
    6.4666   -3.1251   -2.8236 H   0  0
    5.2188   -2.0129   -3.4691 H   0  0
    3.9360   -2.4001    2.3213 H   0  0
    5.0519    1.0272   -1.5676 H   0  0
    4.6809    1.3178    0.1296 H   0  0
    1.1431   -6.9629    1.4552 H   0  0
    1.1641   -2.1173    0.4980 H   0  0
   10.7945    4.3892    1.0187 H   0  0
   10.0537    4.0245    2.5985 H   0  0
    9.0398    4.5034    1.2267 H   0  0
   12.0927   -0.7094    2.3871 H   0  0
   12.7871   -0.3637    0.7795 H   0  0
   11.6470   -1.7048    0.9900 H   0  0
    5.0889    3.7554   -0.1895 H   0  0
    5.5419    3.4752   -1.8705 H   0  0
    3.2526    2.5760   -2.3423 H   0  0
    2.7997    2.8312   -0.6548 H   0  0
   -0.9343   -3.2428    1.0609 H   0  0
   -0.9580   -5.6884    1.5362 H   0  0
    1.9930    4.6869   -2.0799 H   0  0
    3.6479    5.0331   -2.6103 H   0  0
    3.1862    5.2871   -0.9152 H   0  0
  2  1  1  0
  3  4  2  0
  4  1  1  0
  5  2  2  0
  5  3  1  0
  6  1  1  0
  6 36  1  0
  7 14  1  0
  8  9  2  0
  9  7  1  0
 10  8  1  0
 10 13  1  0
 10 37  1  0
 11  2  1  0
 12  6  1  0
 13  7  2  0
 14 16  2  0
 15 12  2  0
 15 24  1  0
 16 17  1  0
 17 20  2  0
 17 25  1  0
 18  5  1  0
 19  6  1  0
 19 38  1  0
 19 39  1  0
 20 15  1  0
 20 40  1  0
 21 12  1  0
 21 41  1  0
 22 11  2  0
 23 18  2  0
 23 22  1  0
 23 42  1  0
 24 19  1  0
 24 43  1  0
 24 44  1  0
 25 21  2  0
 25 45  1  0
 26  4  1  0
 26 46  1  0
 26 47  1  0
 27 14  1  0
 27 48  1  0
 28 16  1  0
 28 49  1  0
 29 18  1  0
 29 50  1  0
 29 51  1  0
 29 52  1  0
 30 22  1  0
 30 53  1  0
 30 54  1  0
 30 55  1  0
 31 26  1  0
 31 56  1  0
 31 57  1  0
 32 31  1  0
 32 58  1  0
 32 59  1  0
 33 28  2  0
 33 60  1  0
 34 27  2  0
 34 33  1  0
 34 61  1  0
 35 32  1  0
 35 62  1  0
 35 63  1  0
 35 64  1  0
M  END
> <Name>
CHEMBL414836

> <Clean Energy>
80.665199

> <chembl_id>
CHEMBL414836

> <chembl_pref_name>
None

> <efficacy>
0.304347826

> <Forcefield>
MMFF

> <ForcefieldBase>
MMFF

> <ForcefieldFFML>
<?xml version="1.0" encoding="UTF-8"?>
<!DOCTYPE ffml SYSTEM "Ffml.dtd">
<ffml version="1.0">
<forcefield name="MMFF" derivedFrom="MMFF" base="MMFF">
<atomTypes>
<atomType
name="N100"
element="N"
mass="14.007"
annotation=""/>
<atomType
name="C101"
element="C"
mass="12.011"
annotation=""/>
<atomType
name="H102"
element="H"
mass="1.008"
annotation=""/>
</atomTypes>
<parameters>
</parameters>
</forcefield>
</ffml>

> <Initial Potential Energy>
260.21494

> <Initial RMS Gradient>
37.92929

> <Minimization Criteria>
STEEPD> Minimization exiting with gradient tolerance ( 3.0000000) satisfied.

> <CHARMm Energy>
105.43397

> <Potential Energy>
105.43397

> <RMS Gradient>
0.05915

> <Bond Energy>
8.04642

> <Angle Energy>
16.53788

> <STRBend>
-0.62972

> <Dihedral Energy>
3.17871

> <OOPLane>
0.18193

> <Van der Waals Energy>
57.66785

> <Electrostatic Energy>
20.45091

> <Hydrogen Bond Energy>
0

> <Solvation Free Energy>
0

> <HasGasteigerCharges>
true

> <REMARK99>
REMARK  99  MacroMolecule created from Mol2 file
REMARK  99  CHEMBL414836
REMARK  99  PROTEIN
REMARK  99  GASTEIGER
REMARK  99
REMARK  99

$$$$
CHEMBL1946953
  SciTegic05292516403D

 58 62  0  0  0  0            999 V2000
    6.5709   -7.7329   -0.6677 C   0  0
    6.4852   -9.0286   -0.1119 C   0  0
    7.6598   -9.5982    0.4284 C   0  0
    7.7799   -7.0093   -0.6923 C   0  0
    8.9211   -7.5809   -0.1494 C   0  0
    8.8495   -8.8698    0.3921 C   0  0
   10.1261   -9.2020    0.8722 N   0  0
   10.9941   -8.0950    0.6949 C   0  0
   10.2538   -7.1042    0.0154 N   0  0
   12.1447   -8.0564    1.1017 O   0  0
   10.7129   -5.8448   -0.3884 C   0  0
   10.5257  -10.4297    1.5177 C   0  0
   11.5383  -11.2134    0.7057 C   0  0
   11.1746  -12.0714   -0.3393 C   0  0
   12.1570  -12.7210   -1.0911 C   0  0
   13.5136  -12.5376   -0.8072 C   0  0
   13.9019  -11.7124    0.2437 C   0  0
   12.9159  -11.0452    0.9785 C   0  0
   15.1971  -11.4558    0.6164 O   0  0
   16.1537  -12.5103    0.4177 C   0  0  1  0  0  0
   17.5558  -11.9512    0.6178 C   0  0
   17.6201  -10.6232    0.8592 O   0  0
   18.5631  -12.6452    0.5630 O   0  0
   15.9308  -13.6352    1.4254 C   0  0
   10.5648   -3.8005   -1.1747 O   0  0
    9.8677   -4.9473   -0.9264 N   0  0
   11.8567   -3.9672   -0.8236 C   0  0
   12.0380   -5.2531   -0.3333 C   0  0
   13.3593   -5.5826    0.0441 C   0  0
   14.3904   -4.6205   -0.0660 C   0  0
   14.1342   -3.3350   -0.5477 C   0  0
   12.8425   -2.9851   -0.9420 C   0  0
   15.0523   -2.3274   -0.6827 O   0  0
   16.3964   -2.6455   -0.3413 C   0  0
    5.1433   -9.7676   -0.0800 C   0  0
    4.3402   -9.3632    0.9423 F   0  0
    5.3190  -11.1106    0.0798 F   0  0
    4.4099   -9.6107   -1.2176 F   0  0
    9.5291  -12.3789   -0.7563 Cl  0  0
    5.6773   -7.2661   -1.0871 H   0  0
    7.6357  -10.5910    0.8664 H   0  0
    7.7710   -6.0143   -1.1253 H   0  0
   10.9770  -10.1586    2.4811 H   0  0
    9.6590  -11.0506    1.7644 H   0  0
   11.8723  -13.3732   -1.9141 H   0  0
   14.2285  -13.0461   -1.4425 H   0  0
   13.2266  -10.3711    1.7770 H   0  0
   16.1341  -12.8702   -0.6159 H   0  0
   16.7172  -10.2453    0.8839 H   0  0
   16.6924  -14.4160    1.3299 H   0  0
   14.9498  -14.1021    1.2942 H   0  0
   15.9654  -13.2496    2.4509 H   0  0
   13.6207   -6.5658    0.4180 H   0  0
   15.3933   -4.9140    0.2411 H   0  0
   12.6117   -1.9924   -1.3213 H   0  0
   17.0050   -1.7538   -0.5209 H   0  0
   16.7880   -3.4473   -0.9761 H   0  0
   16.4851   -2.8986    0.7202 H   0  0
  1  2  2  0
  1 40  1  0
  2  3  1  0
  2 35  1  0
  3  6  2  0
  3 41  1  0
  4  1  1  0
  4 42  1  0
  5  4  2  0
  5  6  1  0
  6  7  1  0
  7  8  1  0
  7 12  1  0
  8  9  1  0
  8 10  2  0
  9  5  1  0
  9 11  1  0
 11 28  1  0
 12 13  1  0
 12 43  1  0
 12 44  1  0
 13 14  2  0
 14 15  1  0
 14 39  1  0
 15 16  2  0
 15 45  1  0
 16 17  1  0
 16 46  1  0
 17 18  2  0
 17 19  1  0
 18 13  1  0
 18 47  1  0
 19 20  1  0
 20 21  1  0
 20 24  1  0
 20 48  1  0
 21 22  1  0
 21 23  2  0
 22 49  1  0
 24 50  1  0
 24 51  1  0
 24 52  1  0
 25 26  1  0
 26 11  2  0
 27 25  1  0
 27 28  2  0
 28 29  1  0
 29 30  2  0
 29 53  1  0
 30 31  1  0
 30 54  1  0
 31 32  2  0
 31 33  1  0
 32 27  1  0
 32 55  1  0
 33 34  1  0
 34 56  1  0
 34 57  1  0
 34 58  1  0
 35 36  1  0
 35 37  1  0
 35 38  1  0
M  END
> <Name>
CHEMBL1946953

> <Clean Energy>
82.1586

> <chembl_id>
CHEMBL1946953

> <chembl_pref_name>
None

> <efficacy>
0.26

> <Forcefield>
MMFF

> <ForcefieldBase>
MMFF

> <ForcefieldFFML>
<?xml version="1.0" encoding="UTF-8"?>
<!DOCTYPE ffml SYSTEM "Ffml.dtd">
<ffml version="1.0">
<forcefield name="MMFF" derivedFrom="MMFF" base="MMFF">
<atomTypes>
<atomType
name="C100"
element="C"
mass="12.011"
annotation=""/>
<atomType
name="N101"
element="N"
mass="14.007"
annotation=""/>
<atomType
name="O102"
element="O"
mass="16"
annotation=""/>
<atomType
name="F103"
element="F"
mass="18.998"
annotation=""/>
<atomType
name="Cl104"
element="Cl"
mass="35.453"
annotation=""/>
<atomType
name="H105"
element="H"
mass="1.008"
annotation=""/>
</atomTypes>
<parameters>
</parameters>
</forcefield>
</ffml>

> <Initial Potential Energy>
192.76677

> <Initial RMS Gradient>
33.04088

> <Minimization Criteria>
STEEPD> Minimization exiting with gradient tolerance ( 3.0000000) satisfied.

> <CHARMm Energy>
67.27777

> <Potential Energy>
67.27777

> <RMS Gradient>
0.03502

> <Bond Energy>
9.98734

> <Angle Energy>
47.88986

> <STRBend>
-1.95721

> <Dihedral Energy>
1.12391

> <OOPLane>
0.05318

> <Van der Waals Energy>
68.40782

> <Electrostatic Energy>
-58.22713

> <Hydrogen Bond Energy>
0

> <Solvation Free Energy>
0

> <HasGasteigerCharges>
true

> <REMARK99>
REMARK  99  MacroMolecule created from Mol2 file
REMARK  99  CHEMBL1946953
REMARK  99  PROTEIN
REMARK  99  GASTEIGER
REMARK  99
REMARK  99

$$$$
CHEMBL2338485
  SciTegic05292516403D

 40 42  0  0  0  0            999 V2000
   31.0379  -28.3855   -0.3006 C   0  0
   30.2205  -29.0621    0.6100 C   0  0
   29.3468  -28.3611    1.4459 C   0  0
   29.2052  -26.9814    1.3073 C   0  0
   29.9376  -26.2983    0.3381 C   0  0
   30.8723  -26.9992   -0.4380 C   0  0
   28.5541  -23.9270    0.6338 S   0  0
   29.7610  -24.9213    0.0359 N   0  0
   27.0253  -24.5641   -0.0060 C   0  0
   25.8085  -24.1574    0.5535 C   0  0
   24.6103  -24.7100    0.0839 C   0  0
   24.6285  -25.6488   -0.9450 C   0  0
   25.8326  -26.0328   -1.5275 C   0  0
   27.0312  -25.4844   -1.0663 C   0  0
   30.2732  -30.4383    0.6714 O   0  0
   28.3565  -30.7689   -0.7941 C   0  0
   29.0919  -31.0671    0.3514 C   0  0
   28.6169  -32.0504    1.2117 C   0  0
   27.4002  -32.6572    0.9232 C   0  0
   26.7154  -32.2721   -0.2224 C   0  0
   27.1709  -31.3448   -1.0992 N   0  0
   26.7560  -33.8524    1.9721 Cl  0  0
   28.5488  -24.0615    2.0735 O   0  0
   28.7632  -22.6512   -0.0168 O   0  0
   23.1536  -26.3287   -1.5093 Cl  0  0
   25.6684  -22.9512    1.7819 Cl  0  0
   32.0091  -29.1231   -1.1755 C   0  0
   28.7536  -28.8868    2.1899 H   0  0
   28.5026  -26.4792    1.9646 H   0  0
   31.4647  -26.4684   -1.1803 H   0  0
   30.4133  -24.4508   -0.5877 H   0  0
   23.6610  -24.4039    0.5182 H   0  0
   25.8452  -26.7585   -2.3381 H   0  0
   27.9546  -25.7899   -1.5497 H   0  0
   28.7025  -30.0355   -1.5161 H   0  0
   29.1777  -32.3178    2.1016 H   0  0
   25.7528  -32.7033   -0.4781 H   0  0
   32.7541  -28.4429   -1.6014 H   0  0
   31.4780  -29.6135   -1.9970 H   0  0
   32.5555  -29.8764   -0.5988 H   0  0
  1  2  1  0
  1  6  2  0
  1 27  1  0
  2  3  2  0
  2 15  1  0
  3  4  1  0
  3 28  1  0
  4  5  2  0
  4 29  1  0
  5  6  1  0
  5  8  1  0
  6 30  1  0
  7  8  1  0
  7  9  1  0
  7 23  2  0
  7 24  2  0
  8 31  1  0
  9 10  1  0
  9 14  2  0
 10 11  2  0
 10 26  1  0
 11 12  1  0
 11 32  1  0
 12 13  2  0
 12 25  1  0
 13 14  1  0
 13 33  1  0
 14 34  1  0
 15 17  1  0
 16 17  1  0
 16 21  2  0
 16 35  1  0
 17 18  2  0
 18 19  1  0
 18 36  1  0
 19 20  2  0
 19 22  1  0
 20 21  1  0
 20 37  1  0
 27 38  1  0
 27 39  1  0
 27 40  1  0
M  END
> <Name>
CHEMBL2338485

> <Clean Energy>
32.575901

> <chembl_id>
CHEMBL2338485

> <chembl_pref_name>
None

> <efficacy>
0.1

> <Forcefield>
MMFF

> <ForcefieldBase>
MMFF

> <ForcefieldFFML>
<?xml version="1.0" encoding="UTF-8"?>
<!DOCTYPE ffml SYSTEM "Ffml.dtd">
<ffml version="1.0">
<forcefield name="MMFF" derivedFrom="MMFF" base="MMFF">
<atomTypes>
<atomType
name="C100"
element="C"
mass="12.011"
annotation=""/>
<atomType
name="S101"
element="S"
mass="32.066"
annotation=""/>
<atomType
name="N102"
element="N"
mass="14.007"
annotation=""/>
<atomType
name="O103"
element="O"
mass="16"
annotation=""/>
<atomType
name="Cl104"
element="Cl"
mass="35.453"
annotation=""/>
<atomType
name="H105"
element="H"
mass="1.008"
annotation=""/>
</atomTypes>
<parameters>
</parameters>
</forcefield>
</ffml>

> <Initial Potential Energy>
627.79706

> <Initial RMS Gradient>
316.15326

> <Minimization Criteria>
STEEPD> Minimization exiting with gradient tolerance ( 3.0000000) satisfied.

> <CHARMm Energy>
15.4696

> <Potential Energy>
15.4696

> <RMS Gradient>
0.07268

> <Bond Energy>
4.0065

> <Angle Energy>
14.09273

> <STRBend>
0.35023

> <Dihedral Energy>
5.92537

> <OOPLane>
0.05732

> <Van der Waals Energy>
54.45623

> <Electrostatic Energy>
-63.41879

> <Hydrogen Bond Energy>
0

> <Solvation Free Energy>
0

> <HasGasteigerCharges>
true

> <REMARK99>
REMARK  99  MacroMolecule created from Mol2 file
REMARK  99  CHEMBL2338485
REMARK  99  PROTEIN
REMARK  99  GASTEIGER
REMARK  99
REMARK  99

$$$$
CHEMBL3597408
  SciTegic05292516403D

 60 63  0  0  0  0            999 V2000
    0.1258    2.6297   -0.3898 C   0  0
   -4.6441   -4.9374    1.2820 C   0  0
   -3.6479   -2.7638    1.1925 O   0  0
   -4.7612   -6.3100    0.6283 C   0  0
    0.3960    0.4545   -1.7360 C   0  0
   -3.6729   -4.0314    0.5330 C   0  0
   -5.5987   -7.1252    1.4534 O   0  0
    1.8527    1.8393    1.1232 O   0  0
    1.4603    2.8417    0.3014 C   0  0
   -2.8604   -0.5816    1.3594 C   0  0
    2.1152    3.8701    0.1879 O   0  0
   -2.7948   -1.8101    0.7004 C   0  0
   -0.1682   -0.7930   -1.7373 N   0  0
   -1.1028   -0.8923   -0.7341 C   0  0
   -1.1485    0.3446   -0.0904 C   0  0
   -0.1878    1.2005   -0.7288 C   0  0
   -2.0545    0.5007    0.9768 C   0  0
   -1.9092   -1.9833   -0.3666 C   0  0
   -5.8115   -8.3435    0.8532 C   0  0
   -4.8627   -9.3535    1.0380 C   0  0
   -5.0610  -10.6038    0.4587 C   0  0
   -6.2109  -10.8437   -0.2906 C   0  0
   -7.1757   -9.8416   -0.4485 C   0  0
   -6.9937   -8.5845    0.1359 C   0  0
   -7.8777   -7.5413    0.0463 O   0  0
   -9.1917   -7.8354   -0.4333 C   0  0
  -10.0701   -6.6034   -0.3846 C   0  0
  -11.4621   -6.7374   -0.2659 C   0  0
  -12.2892   -5.6094   -0.2589 C   0  0
  -11.7409   -4.3267   -0.3695 C   0  0
  -10.3566   -4.1911   -0.5197 C   0  0
   -9.5318   -5.3182   -0.5287 C   0  0
  -12.6259   -3.1157   -0.3891 C   0  0
   -0.6512    3.0532    0.2553 H   0  0
    0.1374    3.2102   -1.3204 H   0  0
   -5.6330   -4.4654    1.3422 H   0  0
   -4.3228   -5.0438    2.3262 H   0  0
   -5.1942   -6.2049   -0.3748 H   0  0
   -3.7656   -6.7633    0.5440 H   0  0
    1.1600    0.7084   -2.4600 H   0  0
   -4.0080   -3.9046   -0.5034 H   0  0
   -2.6746   -4.4849    0.5507 H   0  0
    1.2444    1.0724    1.1317 H   0  0
   -3.5573   -0.4576    2.1858 H   0  0
    0.0559   -1.5404   -2.3808 H   0  0
   -2.1468    1.4439    1.5062 H   0  0
   -1.8279   -2.9169   -0.9089 H   0  0
   -3.9736   -9.1675    1.6333 H   0  0
   -4.3249  -11.3923    0.5965 H   0  0
   -6.3625  -11.8192   -0.7470 H   0  0
   -8.0556  -10.0775   -1.0368 H   0  0
   -9.1457   -8.1627   -1.4789 H   0  0
   -9.6390   -8.6185    0.1915 H   0  0
  -11.9159   -7.7227   -0.1781 H   0  0
  -13.3659   -5.7380   -0.1653 H   0  0
   -9.9062   -3.2064   -0.6281 H   0  0
   -8.4586   -5.1857   -0.6458 H   0  0
  -12.1099   -2.2482    0.0357 H   0  0
  -13.5279   -3.2817    0.2093 H   0  0
  -12.9207   -2.8846   -1.4173 H   0  0
  1  9  1  0
  1 34  1  0
  1 35  1  0
  2  4  1  0
  2 36  1  0
  2 37  1  0
  3  6  1  0
  4  7  1  0
  4 38  1  0
  4 39  1  0
  5 16  2  0
  5 40  1  0
  6  2  1  0
  6 41  1  0
  6 42  1  0
  7 19  1  0
  8 43  1  0
  9  8  1  0
  9 11  2  0
 10 12  2  0
 10 44  1  0
 12  3  1  0
 12 18  1  0
 13  5  1  0
 13 45  1  0
 14 13  1  0
 15 14  1  0
 15 17  2  0
 16  1  1  0
 16 15  1  0
 17 10  1  0
 17 46  1  0
 18 14  2  0
 18 47  1  0
 19 20  2  0
 20 21  1  0
 20 48  1  0
 21 22  2  0
 21 49  1  0
 22 23  1  0
 22 50  1  0
 23 24  2  0
 23 51  1  0
 24 19  1  0
 24 25  1  0
 25 26  1  0
 26 27  1  0
 26 52  1  0
 26 53  1  0
 27 28  2  0
 28 29  1  0
 28 54  1  0
 29 30  2  0
 29 55  1  0
 30 31  1  0
 30 33  1  0
 31 32  2  0
 31 56  1  0
 32 27  1  0
 32 57  1  0
 33 58  1  0
 33 59  1  0
 33 60  1  0
M  END
> <Name>
CHEMBL3597408

> <Clean Energy>
24.5228

> <chembl_id>
CHEMBL3597408

> <chembl_pref_name>
None

> <efficacy>
0.192

> <Forcefield>
MMFF

> <ForcefieldBase>
MMFF

> <ForcefieldFFML>
<?xml version="1.0" encoding="UTF-8"?>
<!DOCTYPE ffml SYSTEM "Ffml.dtd">
<ffml version="1.0">
<forcefield name="MMFF" derivedFrom="MMFF" base="MMFF">
<atomTypes>
<atomType
name="C100"
element="C"
mass="12.011"
annotation=""/>
<atomType
name="O101"
element="O"
mass="16"
annotation=""/>
<atomType
name="N102"
element="N"
mass="14.007"
annotation=""/>
<atomType
name="H103"
element="H"
mass="1.008"
annotation=""/>
</atomTypes>
<parameters>
</parameters>
</forcefield>
</ffml>

> <Initial Potential Energy>
186.95318

> <Initial RMS Gradient>
30.07463

> <Minimization Criteria>
STEEPD> Minimization exiting with gradient tolerance ( 3.0000000) satisfied.

> <CHARMm Energy>
81.21475

> <Potential Energy>
81.21475

> <RMS Gradient>
0.02928

> <Bond Energy>
5.99574

> <Angle Energy>
18.47092

> <STRBend>
-0.38547

> <Dihedral Energy>
4.37531

> <OOPLane>
0.16662

> <Van der Waals Energy>
62.6582

> <Electrostatic Energy>
-10.06657

> <Hydrogen Bond Energy>
0

> <Solvation Free Energy>
0

> <HasGasteigerCharges>
true

> <REMARK99>
REMARK  99  MacroMolecule created from Mol2 file
REMARK  99  CHEMBL3597408
REMARK  99  PROTEIN
REMARK  99  GASTEIGER
REMARK  99
REMARK  99

$$$$
CHEMBL1644309
  SciTegic05292516403D

 64 67  0  0  0  0            999 V2000
   18.8033  -18.5542    0.3769 C   0  0
   19.2269  -19.4936   -0.5662 C   0  0
   20.5135  -20.0367   -0.4798 C   0  0
   21.3788  -19.6417    0.5446 C   0  0
   20.9368  -18.7631    1.5452 C   0  0
   19.6495  -18.2061    1.4387 C   0  0
   17.4541  -17.9217    0.2345 C   0  0
   17.4038  -16.3883    0.3819 C   0  0
   16.4401  -18.7011   -0.0223 N   0  0
   15.2381  -17.9928   -0.1465 O   0  0
   14.1431  -18.9098   -0.2687 C   0  0
   12.8963  -18.1942   -0.6645 C   0  0
   12.6633  -17.4288   -1.7885 C   0  0
   11.3834  -16.9571   -1.7212 O   0  0
   10.8911  -17.4666   -0.5476 C   0  0
   11.7502  -18.2203    0.1117 N   0  0
   13.4628  -17.0304   -2.9593 C   0  0
    9.5270  -17.1058   -0.1848 C   0  0
    8.7181  -16.3222   -1.0200 C   0  0
    7.4170  -15.9907   -0.6386 C   0  0
    6.9132  -16.4385    0.5811 C   0  0
    7.7026  -17.2190    1.4217 C   0  0
    9.0024  -17.5500    1.0397 C   0  0
   21.8162  -18.3833    2.7006 C   0  0
   22.6373  -20.1940    0.5990 O   0  0
   23.5948  -19.3846   -0.0802 C   0  0
   23.7275  -19.6305   -1.5832 C   0  0
   24.5500  -18.7438   -2.1938 O   0  0
   23.1656  -20.5114   -2.2162 O   0  0
   16.9673  -15.6898   -0.9144 C   0  0
   16.9722  -14.1704   -0.7536 C   0  0
   16.1323  -13.7295    0.4426 C   0  0
   16.5793  -14.4163    1.7307 C   0  0
   16.5728  -15.9377    1.5901 C   0  0
   18.5641  -19.7951   -1.3745 H   0  0
   20.8409  -20.7669   -1.2177 H   0  0
   19.2990  -17.5144    2.2019 H   0  0
   18.4305  -16.0420    0.5637 H   0  0
   14.3806  -19.6664   -1.0261 H   0  0
   14.0012  -19.4123    0.6945 H   0  0
   12.8879  -17.1586   -3.8816 H   0  0
   14.3720  -17.6336   -3.0419 H   0  0
   13.7564  -15.9793   -2.8793 H   0  0
    9.0952  -15.9639   -1.9754 H   0  0
    6.7954  -15.3846   -1.2931 H   0  0
    5.9009  -16.1800    0.8774 H   0  0
    7.3045  -17.5689    2.3710 H   0  0
    9.6177  -18.1577    1.7025 H   0  0
   21.2246  -18.0003    3.5390 H   0  0
   22.5246  -17.6074    2.3951 H   0  0
   22.3705  -19.2517    3.0712 H   0  0
   23.3995  -18.3170    0.0840 H   0  0
   24.5688  -19.6160    0.3649 H   0  0
   25.0858  -18.1732   -1.6069 H   0  0
   17.6375  -15.9748   -1.7344 H   0  0
   15.9632  -16.0010   -1.2180 H   0  0
   18.0036  -13.8197   -0.6252 H   0  0
   16.5877  -13.7025   -1.6669 H   0  0
   16.2043  -12.6425    0.5615 H   0  0
   15.0771  -13.9617    0.2526 H   0  0
   17.5893  -14.0784    1.9933 H   0  0
   15.9199  -14.1202    2.5544 H   0  0
   15.5343  -16.2744    1.5060 H   0  0
   16.9677  -16.3920    2.5065 H   0  0
  1  2  2  0
  1  7  1  0
  2  3  1  0
  2 35  1  0
  3  4  2  0
  3 36  1  0
  4  5  1  0
  4 25  1  0
  5  6  2  0
  5 24  1  0
  6  1  1  0
  6 37  1  0
  7  8  1  0
  7  9  2  0
  8 30  1  0
  8 34  1  0
  8 38  1  0
  9 10  1  0
 10 11  1  0
 11 12  1  0
 11 39  1  0
 11 40  1  0
 12 13  2  0
 13 14  1  0
 13 17  1  0
 14 15  1  0
 15 16  2  0
 15 18  1  0
 16 12  1  0
 17 41  1  0
 17 42  1  0
 17 43  1  0
 18 19  2  0
 19 20  1  0
 19 44  1  0
 20 21  2  0
 20 45  1  0
 21 22  1  0
 21 46  1  0
 22 23  2  0
 22 47  1  0
 23 18  1  0
 23 48  1  0
 24 49  1  0
 24 50  1  0
 24 51  1  0
 25 26  1  0
 26 27  1  0
 26 52  1  0
 26 53  1  0
 27 28  1  0
 27 29  2  0
 28 54  1  0
 30 31  1  0
 30 55  1  0
 30 56  1  0
 31 32  1  0
 31 57  1  0
 31 58  1  0
 32 33  1  0
 32 59  1  0
 32 60  1  0
 33 34  1  0
 33 61  1  0
 33 62  1  0
 34 63  1  0
 34 64  1  0
M  END
> <Name>
CHEMBL1644309

> <Clean Energy>
58.391701

> <chembl_id>
CHEMBL1644309

> <chembl_pref_name>
None

> <efficacy>
0.181

> <Forcefield>
MMFF

> <ForcefieldBase>
MMFF

> <ForcefieldFFML>
<?xml version="1.0" encoding="UTF-8"?>
<!DOCTYPE ffml SYSTEM "Ffml.dtd">
<ffml version="1.0">
<forcefield name="MMFF" derivedFrom="MMFF" base="MMFF">
<atomTypes>
<atomType
name="C100"
element="C"
mass="12.011"
annotation=""/>
<atomType
name="N101"
element="N"
mass="14.007"
annotation=""/>
<atomType
name="O102"
element="O"
mass="16"
annotation=""/>
<atomType
name="H103"
element="H"
mass="1.008"
annotation=""/>
</atomTypes>
<parameters>
</parameters>
</forcefield>
</ffml>

> <Initial Potential Energy>
282.81751

> <Initial RMS Gradient>
37.49612

> <Minimization Criteria>
CONJUG> Minimization exiting with gradient tolerance ( 0.0100000) satisfied.

> <CHARMm Energy>
123.27932

> <Potential Energy>
123.27932

> <RMS Gradient>
0.00854

> <Bond Energy>
6.25048

> <Angle Energy>
12.17029

> <STRBend>
1.14114

> <Dihedral Energy>
4.01647

> <OOPLane>
0.06005

> <Van der Waals Energy>
51.82649

> <Electrostatic Energy>
47.81439

> <Hydrogen Bond Energy>
0

> <Solvation Free Energy>
0

> <HasGasteigerCharges>
true

> <REMARK99>
REMARK  99  MacroMolecule created from Mol2 file
REMARK  99  CHEMBL1644309
REMARK  99  PROTEIN
REMARK  99  GASTEIGER
REMARK  99
REMARK  99

$$$$
CHEMBL474550
  SciTegic05292516403D

 60 64  0  0  0  0            999 V2000
   16.1506   -0.7485    1.0884 C   0  0
   17.1243   -0.8356    0.0970 C   0  0
   17.0432   -1.8296   -0.8756 C   0  0
   15.9840   -2.7401   -0.8578 C   0  0
   14.9929   -2.6672    0.1326 C   0  0
   15.0917   -1.6591    1.1045 C   0  0
   13.8752   -3.6051    0.1746 C   0  0
   13.8608   -4.6011   -0.7677 O   0  0
   12.7432   -5.3325   -0.4846 C   0  0
   12.1053   -4.7411    0.5868 C   0  0
   12.8453   -3.6465    1.0007 N   0  0
   12.4960   -6.5171   -1.3243 C   0  0
   10.8769   -5.1595    1.3218 C   0  0
    9.6249   -5.3325    0.4539 C   0  0
    8.5630   -5.7761    1.3081 O   0  0
    7.3173   -5.9585    0.7667 C   0  0
    6.3021   -6.2095    1.6961 C   0  0
    4.9663   -6.3531    1.2935 C   0  0
    4.6143   -6.2465   -0.0584 C   0  0
    5.6441   -6.0556   -0.9936 C   0  0
    6.9828   -5.9124   -0.5851 C   0  0
    3.1633   -6.2113   -0.4808 C   0  0
    2.6973   -7.5921   -0.7905 C   0  0
    2.9050   -8.1363   -2.0275 N   0  0
    2.2839   -9.3013   -2.0793 N   0  0
    1.7039   -9.5471   -0.8764 N   0  0
    1.8428   -8.4238   -0.0760 C   0  0
    1.2305   -8.1499    1.1814 C   0  0
    1.8173   -7.7571    2.1769 O   0  0
    1.0724  -10.7987   -0.6295 C   0  0
    0.7759  -11.6405   -1.7163 C   0  0
    0.1313  -12.8638   -1.5115 C   0  0
   -0.2031  -13.2672   -0.2221 C   0  0
    0.1136  -12.4536    0.8633 C   0  0
    0.7519  -11.2244    0.6658 C   0  0
   -0.1129   -8.2969    1.1548 O   0  0
   16.2135    0.0266    1.8480 H   0  0
   17.9473   -0.1271    0.0835 H   0  0
   17.8028   -1.8979   -1.6494 H   0  0
   15.9369   -3.5081   -1.6269 H   0  0
   14.3341   -1.5820    1.8834 H   0  0
   12.0510   -7.3250   -0.7358 H   0  0
   13.4277   -6.8932   -1.7586 H   0  0
   11.8134   -6.2681   -2.1424 H   0  0
   11.0832   -6.1020    1.8456 H   0  0
   10.6589   -4.4318    2.1142 H   0  0
    9.3586   -4.3780   -0.0157 H   0  0
    9.8047   -6.0846   -0.3221 H   0  0
    6.5491   -6.2583    2.7547 H   0  0
    4.1994   -6.5077    2.0521 H   0  0
    5.4092   -5.9776   -2.0540 H   0  0
    7.7324   -5.7455   -1.3507 H   0  0
    2.5538   -5.7510    0.3057 H   0  0
    3.0476   -5.5718   -1.3645 H   0  0
    1.0220  -11.3564   -2.7388 H   0  0
   -0.1054  -13.5034   -2.3593 H   0  0
   -0.6972  -14.2220   -0.0614 H   0  0
   -0.1217  -12.7799    1.8741 H   0  0
    1.0062  -10.6584    1.5567 H   0  0
   -0.5168   -8.5378    0.2981 H   0  0
  1  2  2  0
  1 37  1  0
  2  3  1  0
  2 38  1  0
  3  4  2  0
  3 39  1  0
  4  5  1  0
  4 40  1  0
  5  6  2  0
  5  7  1  0
  6  1  1  0
  6 41  1  0
  7  8  1  0
  8  9  1  0
  9 10  2  0
  9 12  1  0
 10 11  1  0
 10 13  1  0
 11  7  2  0
 12 42  1  0
 12 43  1  0
 12 44  1  0
 13 14  1  0
 13 45  1  0
 13 46  1  0
 14 15  1  0
 14 47  1  0
 14 48  1  0
 15 16  1  0
 16 17  2  0
 17 18  1  0
 17 49  1  0
 18 19  2  0
 18 50  1  0
 19 20  1  0
 19 22  1  0
 20 21  2  0
 20 51  1  0
 21 16  1  0
 21 52  1  0
 22 23  1  0
 22 53  1  0
 22 54  1  0
 23 24  1  0
 24 25  2  0
 25 26  1  0
 26 27  1  0
 26 30  1  0
 27 23  2  0
 27 28  1  0
 28 29  2  0
 28 36  1  0
 30 31  2  0
 31 32  1  0
 31 55  1  0
 32 33  2  0
 32 56  1  0
 33 34  1  0
 33 57  1  0
 34 35  2  0
 34 58  1  0
 35 30  1  0
 35 59  1  0
 36 60  1  0
M  END
> <Name>
CHEMBL474550

> <Clean Energy>
50.058201

> <chembl_id>
CHEMBL474550

> <chembl_pref_name>
None

> <efficacy>
0.21

> <Forcefield>
MMFF

> <ForcefieldBase>
MMFF

> <ForcefieldFFML>
<?xml version="1.0" encoding="UTF-8"?>
<!DOCTYPE ffml SYSTEM "Ffml.dtd">
<ffml version="1.0">
<forcefield name="MMFF" derivedFrom="MMFF" base="MMFF">
<atomTypes>
<atomType
name="C100"
element="C"
mass="12.011"
annotation=""/>
<atomType
name="O101"
element="O"
mass="16"
annotation=""/>
<atomType
name="N102"
element="N"
mass="14.007"
annotation=""/>
<atomType
name="H103"
element="H"
mass="1.008"
annotation=""/>
</atomTypes>
<parameters>
</parameters>
</forcefield>
</ffml>

> <Initial Potential Energy>
196.6503

> <Initial RMS Gradient>
37.25727

> <Minimization Criteria>
STEEPD> Minimization exiting with gradient tolerance ( 3.0000000) satisfied.

> <CHARMm Energy>
60.4773

> <Potential Energy>
60.4773

> <RMS Gradient>
0.05461

> <Bond Energy>
6.64143

> <Angle Energy>
16.145

> <STRBend>
0.64765

> <Dihedral Energy>
9.28219

> <OOPLane>
0.43509

> <Van der Waals Energy>
58.82135

> <Electrostatic Energy>
-31.49541

> <Hydrogen Bond Energy>
0

> <Solvation Free Energy>
0

> <HasGasteigerCharges>
true

> <REMARK99>
REMARK  99  MacroMolecule created from Mol2 file
REMARK  99  CHEMBL474550
REMARK  99  PROTEIN
REMARK  99  GASTEIGER
REMARK  99
REMARK  99

$$$$
CHEMBL2204688
  SciTegic05292516403D

 57 59  0  0  0  0            999 V2000
   28.7362  -13.9572    0.7468 C   0  0
   28.1021  -14.7341   -0.4397 C   0  0
   28.9997  -14.5266   -1.6736 C   0  0
   28.1832  -13.0554    1.3624 O   0  0
   29.9967  -14.3497    1.0811 O   0  0
   26.8421  -14.1580   -0.8484 O   0  0
   25.6928  -14.7272   -0.3821 C   0  0
   25.2630  -14.5635    0.9304 C   0  0
   24.0659  -15.1557    1.3485 C   0  0
   23.2830  -15.9038    0.4552 C   0  0
   23.7048  -16.0176   -0.8760 C   0  0
   24.8970  -15.4205   -1.2941 C   0  0
   22.0297  -16.6001    0.9326 C   0  0
   20.8198  -15.6889    1.1549 C   0  0
   20.1529  -15.2395   -0.1457 C   0  0
   18.9866  -14.4545    0.1311 O   0  0
   17.7685  -15.0618    0.2492 C   0  0
   16.6984  -14.1762    0.4278 C   0  0
   15.3878  -14.6451    0.5664 C   0  0
   15.1357  -16.0179    0.5139 C   0  0
   16.2039  -16.9094    0.3631 C   0  0
   17.5163  -16.4325    0.2265 C   0  0
   13.7642  -16.5657    0.6665 C   0  0
   12.5791  -15.8962    0.0642 C   0  0
   12.6641  -15.1606   -1.1247 C   0  0
   11.5184  -14.5682   -1.6632 C   0  0
   10.2847  -14.7212   -1.0287 C   0  0
   10.1906  -15.4707    0.1430 C   0  0
   11.3339  -16.0610    0.6862 C   0  0
   13.6006  -17.6029    1.3059 O   0  0
   28.0411  -16.2399   -0.1229 C   0  0
   28.5437  -14.9755   -2.5640 H   0  0
   29.9977  -14.9587   -1.5496 H   0  0
   29.1211  -13.4580   -1.8880 H   0  0
   30.3460  -15.0894    0.5543 H   0  0
   25.8457  -13.9738    1.6334 H   0  0
   23.7502  -15.0360    2.3833 H   0  0
   23.1125  -16.5785   -1.5954 H   0  0
   25.2187  -15.5112   -2.3285 H   0  0
   21.7648  -17.4096    0.2406 H   0  0
   22.2715  -17.0992    1.8807 H   0  0
   20.0843  -16.2342    1.7588 H   0  0
   21.0911  -14.8091    1.7515 H   0  0
   20.8395  -14.5817   -0.6909 H   0  0
   19.9351  -16.0735   -0.8221 H   0  0
   16.8952  -13.1064    0.4698 H   0  0
   14.5849  -13.9312    0.7310 H   0  0
   16.0202  -17.9824    0.3531 H   0  0
   18.3097  -17.1630    0.1186 H   0  0
   13.6075  -15.0551   -1.6545 H   0  0
   11.5815  -13.9961   -2.5862 H   0  0
    9.3919  -14.2664   -1.4535 H   0  0
    9.2261  -15.6023    0.6291 H   0  0
   11.2487  -16.6550    1.5944 H   0  0
   27.5394  -16.7960   -0.9222 H   0  0
   27.4942  -16.4296    0.8072 H   0  0
   29.0384  -16.6731    0.0059 H   0  0
  1  2  1  0
  1  4  2  0
  1  5  1  0
  2  3  1  0
  2  6  1  0
  2 31  1  0
  3 32  1  0
  3 33  1  0
  3 34  1  0
  5 35  1  0
  6  7  1  0
  7  8  1  0
  7 12  2  0
  8  9  2  0
  8 36  1  0
  9 10  1  0
  9 37  1  0
 10 11  2  0
 10 13  1  0
 11 12  1  0
 11 38  1  0
 12 39  1  0
 13 14  1  0
 13 40  1  0
 13 41  1  0
 14 15  1  0
 14 42  1  0
 14 43  1  0
 15 16  1  0
 15 44  1  0
 15 45  1  0
 16 17  1  0
 17 18  1  0
 17 22  2  0
 18 19  2  0
 18 46  1  0
 19 20  1  0
 19 47  1  0
 20 21  2  0
 20 23  1  0
 21 22  1  0
 21 48  1  0
 22 49  1  0
 23 24  1  0
 23 30  2  0
 24 25  1  0
 24 29  2  0
 25 26  2  0
 25 50  1  0
 26 27  1  0
 26 51  1  0
 27 28  2  0
 27 52  1  0
 28 29  1  0
 28 53  1  0
 29 54  1  0
 31 55  1  0
 31 56  1  0
 31 57  1  0
M  END
> <Name>
CHEMBL2204688

> <Clean Energy>
27.9457

> <chembl_id>
CHEMBL2204688

> <chembl_pref_name>
None

> <efficacy>
0.313390313

> <Forcefield>
MMFF

> <ForcefieldBase>
MMFF

> <ForcefieldFFML>
<?xml version="1.0" encoding="UTF-8"?>
<!DOCTYPE ffml SYSTEM "Ffml.dtd">
<ffml version="1.0">
<forcefield name="MMFF" derivedFrom="MMFF" base="MMFF">
<atomTypes>
<atomType
name="C100"
element="C"
mass="12.011"
annotation=""/>
<atomType
name="O101"
element="O"
mass="16"
annotation=""/>
<atomType
name="H102"
element="H"
mass="1.008"
annotation=""/>
</atomTypes>
<parameters>
</parameters>
</forcefield>
</ffml>

> <Initial Potential Energy>
225.66649

> <Initial RMS Gradient>
32.39102

> <Minimization Criteria>
STEEPD> Minimization exiting with gradient tolerance ( 3.0000000) satisfied.

> <CHARMm Energy>
123.12333

> <Potential Energy>
123.12333

> <RMS Gradient>
0.06584

> <Bond Energy>
7.34286

> <Angle Energy>
23.20646

> <STRBend>
1.30235

> <Dihedral Energy>
11.74475

> <OOPLane>
0.07

> <Van der Waals Energy>
64.24835

> <Electrostatic Energy>
15.20857

> <Hydrogen Bond Energy>
0

> <Solvation Free Energy>
0

> <HasGasteigerCharges>
true

> <REMARK99>
REMARK  99  MacroMolecule created from Mol2 file
REMARK  99  CHEMBL2204688
REMARK  99  PROTEIN
REMARK  99  GASTEIGER
REMARK  99
REMARK  99

$$$$
CHEMBL514174
  SciTegic05292516403D

 60 64  0  0  0  0            999 V2000
    5.6884    0.6150   -0.6759 C   0  0
    6.9867    0.9574   -1.0502 C   0  0
    8.0089    0.0160   -0.9596 C   0  0
    7.7318   -1.2709   -0.4916 C   0  0
    6.4305   -1.6324   -0.1094 C   0  0
    5.4127   -0.6723   -0.2095 C   0  0
    6.1207   -2.9727    0.3806 C   0  0
    7.1913   -3.7861    0.6543 O   0  0
    6.6301   -4.9528    1.0892 C   0  0
    5.2618   -4.7936    1.0737 C   0  0
    4.9472   -3.5337    0.6136 N   0  0
    7.5462   -6.0441    1.4623 C   0  0
    4.1947   -5.7441    1.4606 C   0  0
    3.1820   -5.9381    0.3428 C   0  0
    2.1843   -6.8439    0.8186 O   0  0
    0.9795   -6.7509    0.1836 C   0  0
   -0.1281   -7.0680    0.9661 C   0  0
   -1.4104   -6.9938    0.4292 C   0  0
   -1.5949   -6.6330   -0.9133 C   0  0
   -0.4730   -6.3145   -1.6933 C   0  0
    0.8106   -6.3864   -1.1513 C   0  0
   -2.9781   -6.5581   -1.5182 C   0  0
   -3.7867   -7.7847   -1.2625 C   0  0
   -4.8288   -7.9047   -0.3426 N   0  0
   -5.1746   -9.2143   -0.2323 N   0  0
   -4.5791   -9.8942   -1.1933 N   0  0
   -3.6990   -9.0599   -1.8240 C   0  0
   -2.8590   -9.5521   -2.9088 C   0  0
   -3.2787  -10.2687   -3.8091 O   0  0
   -5.5662   -6.9458    0.4085 C   0  0
   -6.2169   -7.3634    1.5841 C   0  0
   -6.9584   -6.4573    2.3456 C   0  0
   -7.0740   -5.1329    1.9336 C   0  0
   -6.4702   -4.7199    0.7485 C   0  0
   -5.7289   -5.6242   -0.0197 C   0  0
   -1.5541   -9.1647   -2.8586 O   0  0
    4.8963    1.3566   -0.7426 H   0  0
    7.1986    1.9587   -1.4134 H   0  0
    9.0211    0.2796   -1.2533 H   0  0
    8.5412   -1.9950   -0.4315 H   0  0
    4.3961   -0.9267    0.0827 H   0  0
    7.2106   -6.9932    1.0332 H   0  0
    7.5853   -6.1526    2.5504 H   0  0
    8.5614   -5.8516    1.1015 H   0  0
    4.6200   -6.7153    1.7417 H   0  0
    3.6861   -5.3730    2.3590 H   0  0
    2.7400   -4.9678    0.0790 H   0  0
    3.6691   -6.3658   -0.5421 H   0  0
    0.0119   -7.3475    2.0073 H   0  0
   -2.2557   -7.2178    1.0759 H   0  0
   -0.5865   -6.0221   -2.7363 H   0  0
    1.6609   -6.1611   -1.7894 H   0  0
   -3.4173   -5.6411   -1.1321 H   0  0
   -2.9060   -6.4206   -2.6049 H   0  0
   -6.1544   -8.3950    1.9293 H   0  0
   -7.4624   -6.7902    3.2515 H   0  0
   -7.6630   -4.4315    2.5206 H   0  0
   -6.5948   -3.6942    0.4083 H   0  0
   -5.3573   -5.2723   -0.9754 H   0  0
   -1.2949   -8.7765   -1.9995 H   0  0
  1  2  2  0
  1 37  1  0
  2  3  1  0
  2 38  1  0
  3  4  2  0
  3 39  1  0
  4  5  1  0
  4 40  1  0
  5  6  2  0
  5  7  1  0
  6  1  1  0
  6 41  1  0
  7  8  1  0
  8  9  1  0
  9 10  2  0
  9 12  1  0
 10 11  1  0
 10 13  1  0
 11  7  2  0
 12 42  1  0
 12 43  1  0
 12 44  1  0
 13 14  1  0
 13 45  1  0
 13 46  1  0
 14 15  1  0
 14 47  1  0
 14 48  1  0
 15 16  1  0
 16 17  2  0
 17 18  1  0
 17 49  1  0
 18 19  2  0
 18 50  1  0
 19 20  1  0
 19 22  1  0
 20 21  2  0
 20 51  1  0
 21 16  1  0
 21 52  1  0
 22 23  1  0
 22 53  1  0
 22 54  1  0
 23 24  1  0
 24 25  1  0
 24 30  1  0
 25 26  2  0
 26 27  1  0
 27 23  2  0
 27 28  1  0
 28 29  2  0
 28 36  1  0
 30 31  2  0
 31 32  1  0
 31 55  1  0
 32 33  2  0
 32 56  1  0
 33 34  1  0
 33 57  1  0
 34 35  2  0
 34 58  1  0
 35 30  1  0
 35 59  1  0
 36 60  1  0
M  END
> <Name>
CHEMBL514174

> <Clean Energy>
61.615799

> <chembl_id>
CHEMBL514174

> <chembl_pref_name>
None

> <efficacy>
0.21

> <Forcefield>
MMFF

> <ForcefieldBase>
MMFF

> <ForcefieldFFML>
<?xml version="1.0" encoding="UTF-8"?>
<!DOCTYPE ffml SYSTEM "Ffml.dtd">
<ffml version="1.0">
<forcefield name="MMFF" derivedFrom="MMFF" base="MMFF">
<atomTypes>
<atomType
name="C100"
element="C"
mass="12.011"
annotation=""/>
<atomType
name="O101"
element="O"
mass="16"
annotation=""/>
<atomType
name="N102"
element="N"
mass="14.007"
annotation=""/>
<atomType
name="H103"
element="H"
mass="1.008"
annotation=""/>
</atomTypes>
<parameters>
</parameters>
</forcefield>
</ffml>

> <Initial Potential Energy>
197.30463

> <Initial RMS Gradient>
33.85236

> <Minimization Criteria>
CONJUG> Minimization exiting with gradient tolerance ( 0.0100000) satisfied.

> <CHARMm Energy>
97.31181

> <Potential Energy>
97.31181

> <RMS Gradient>
0.00958

> <Bond Energy>
6.41517

> <Angle Energy>
12.31903

> <STRBend>
0.37685

> <Dihedral Energy>
13.34269

> <OOPLane>
0.0595

> <Van der Waals Energy>
63.24551

> <Electrostatic Energy>
1.55307

> <Hydrogen Bond Energy>
0

> <Solvation Free Energy>
0

> <HasGasteigerCharges>
true

> <REMARK99>
REMARK  99  MacroMolecule created from Mol2 file
REMARK  99  CHEMBL514174
REMARK  99  PROTEIN
REMARK  99  GASTEIGER
REMARK  99
REMARK  99

$$$$
CHEMBL293499
  SciTegic05292516403D

 84 89  0  0  0  0            999 V2000
    0.2263    0.9004    0.0793 C   0  0
    1.5676    1.4646   -0.3062 C   0  0  1  0  0  0
    0.2348   -0.4716   -0.1584 C   0  0
    9.4563   10.6374    1.5123 N   0  0
    1.4591   -0.9451   -0.5683 O   0  0
    8.2120   11.0793    1.1886 C   0  0
   -0.9117    1.5174    0.5886 C   0  0
    8.4356    8.5789    1.0875 C   0  0
    9.6767    9.2931    1.4825 C   0  0
    2.3848    0.1358   -0.2708 C   0  0
   -2.0572    0.7112    0.7588 C   0  0
    7.1744    9.7216    0.8014 S   0  0
   -0.8720   -1.2909    0.0320 C   0  0
   -2.0423   -0.6903    0.5391 C   0  0
    1.5290    2.1418   -1.6996 C   0  0
    0.8848    3.4707   -1.6553 N   0  0
    8.3957    7.2444    0.9744 C   0  0
   -3.2161    1.3007    1.2138 O   0  0
    7.8773   12.2543    1.1759 O   0  0
    1.7984    4.6227   -1.8161 C   0  0  2  0  0  0
   10.7469    8.7671    1.7456 O   0  0
    2.6999    4.9334   -0.6110 C   0  0
    7.2312    6.4497    0.5679 C   0  0
    3.9496    4.2352   -0.7531 O   0  0
   -4.0167    1.7220    0.1031 C   0  0
    5.0117    4.9511   -0.2668 C   0  0
   -0.1023    3.6157   -2.7352 C   0  0
   -0.9402    2.9768    0.9341 C   0  0
    3.5262    0.0376   -1.2872 C   0  0
    2.9724   -0.1169    1.1347 C   0  0
    7.2499    5.7836   -0.6626 C   0  0
    6.1120    6.3190    1.3985 C   0  0
   -0.7692   -2.7647   -0.2316 C   0  0
    6.1446    5.0302   -1.0746 C   0  0
    5.0074    5.5673    0.9849 C   0  0
   -3.2686   -1.5193    0.8218 C   0  0
   -5.3104    2.2828    0.6401 C   0  0
   -0.3858    5.1078   -2.7692 C   0  0
    0.7842    5.7503   -2.0360 C   0  0
   -6.4205    1.4495    0.8375 C   0  0
   -5.4088    3.6379    0.9848 C   0  0
   -6.6005    4.1554    1.4950 C   0  0
   -7.6112    1.9685    1.3471 C   0  0
   -7.7020    3.3212    1.6730 C   0  0
    1.9555    2.1582    0.4477 H   0  0
   10.1883   11.2846    1.7640 H   0  0
    2.5422    2.2587   -2.0980 H   0  0
    1.0051    1.4785   -2.4017 H   0  0
    9.2916    6.6557    1.1692 H   0  0
    2.4057    4.5008   -2.7242 H   0  0
    2.8658    6.0194   -0.5769 H   0  0
    2.2249    4.6300    0.3292 H   0  0
   -3.4989    2.4918   -0.4829 H   0  0
   -4.2357    0.8826   -0.5699 H   0  0
    0.3101    3.3005   -3.7024 H   0  0
   -1.0114    3.0380   -2.5388 H   0  0
   -1.5230    3.1482    1.8458 H   0  0
   -1.3850    3.5560    0.1205 H   0  0
    0.0624    3.3634    1.1385 H   0  0
    4.0651   -0.9105   -1.1737 H   0  0
    4.2452    0.8544   -1.1667 H   0  0
    3.1490    0.0365   -2.3156 H   0  0
    3.4463   -1.1040    1.1851 H   0  0
    2.1965   -0.1123    1.9085 H   0  0
    3.7181    0.6420    1.3944 H   0  0
    8.1162    5.8498   -1.3164 H   0  0
    6.0883    6.7952    2.3756 H   0  0
   -0.5953   -3.3027    0.7055 H   0  0
    0.0484   -2.9990   -0.9213 H   0  0
   -1.6833   -3.1427   -0.7005 H   0  0
    6.1700    4.5280   -2.0379 H   0  0
    4.1527    5.4727    1.6485 H   0  0
   -2.9976   -2.4752    1.2818 H   0  0
   -3.8138   -1.7086   -0.1080 H   0  0
   -3.9444   -1.0265    1.5277 H   0  0
   -0.4597    5.4704   -3.7999 H   0  0
   -1.3262    5.3465   -2.2594 H   0  0
    0.4306    6.1615   -1.0815 H   0  0
    1.2157    6.5750   -2.6129 H   0  0
   -6.3557    0.3906    0.5989 H   0  0
   -4.5513    4.2962    0.8636 H   0  0
   -6.6618    5.2075    1.7580 H   0  0
   -8.4712    1.3182    1.4970 H   0  0
   -8.6319    3.7203    2.0731 H   0  0
  1  2  1  0
  1  3  2  0
  1  7  1  0
  2 10  1  0
  2 15  1  0
  2 45  1  0
  3  5  1  0
  3 13  1  0
  4  6  1  0
  4  9  1  0
  4 46  1  0
  5 10  1  0
  6 12  1  0
  6 19  2  0
  7 11  2  0
  7 28  1  0
  8  9  1  0
  8 12  1  0
  8 17  2  0
  9 21  2  0
 10 29  1  0
 10 30  1  0
 11 14  1  0
 11 18  1  0
 13 14  2  0
 13 33  1  0
 14 36  1  0
 15 16  1  0
 15 47  1  0
 15 48  1  0
 16 20  1  0
 16 27  1  0
 17 23  1  0
 17 49  1  0
 18 25  1  0
 20 22  1  0
 20 39  1  0
 20 50  1  0
 22 24  1  0
 22 51  1  0
 22 52  1  0
 23 31  2  0
 23 32  1  0
 24 26  1  0
 25 37  1  0
 25 53  1  0
 25 54  1  0
 26 34  2  0
 26 35  1  0
 27 38  1  0
 27 55  1  0
 27 56  1  0
 28 57  1  0
 28 58  1  0
 28 59  1  0
 29 60  1  0
 29 61  1  0
 29 62  1  0
 30 63  1  0
 30 64  1  0
 30 65  1  0
 31 34  1  0
 31 66  1  0
 32 35  2  0
 32 67  1  0
 33 68  1  0
 33 69  1  0
 33 70  1  0
 34 71  1  0
 35 72  1  0
 36 73  1  0
 36 74  1  0
 36 75  1  0
 37 40  2  0
 37 41  1  0
 38 39  1  0
 38 76  1  0
 38 77  1  0
 39 78  1  0
 39 79  1  0
 40 43  1  0
 40 80  1  0
 41 42  2  0
 41 81  1  0
 42 44  1  0
 42 82  1  0
 43 44  2  0
 43 83  1  0
 44 84  1  0
M  END
> <Name>
CHEMBL293499

> <Clean Energy>
117.047997

> <chembl_id>
CHEMBL293499

> <chembl_pref_name>
None

> <efficacy>
0.271624473

> <Forcefield>
MMFF

> <ForcefieldBase>
MMFF

> <ForcefieldFFML>
<?xml version="1.0" encoding="UTF-8"?>
<!DOCTYPE ffml SYSTEM "Ffml.dtd">
<ffml version="1.0">
<forcefield name="MMFF" derivedFrom="MMFF" base="MMFF">
<atomTypes>
<atomType
name="C100"
element="C"
mass="12.011"
annotation=""/>
<atomType
name="N101"
element="N"
mass="14.007"
annotation=""/>
<atomType
name="O102"
element="O"
mass="16"
annotation=""/>
<atomType
name="S103"
element="S"
mass="32.066"
annotation=""/>
<atomType
name="H104"
element="H"
mass="1.008"
annotation=""/>
</atomTypes>
<parameters>
</parameters>
</forcefield>
</ffml>

> <Initial Potential Energy>
333.87111

> <Initial RMS Gradient>
42.9047

> <Minimization Criteria>
STEEPD> Minimization exiting with gradient tolerance ( 3.0000000) satisfied.

> <CHARMm Energy>
69.42724

> <Potential Energy>
69.42724

> <RMS Gradient>
0.06121

> <Bond Energy>
9.33208

> <Angle Energy>
27.21326

> <STRBend>
1.21234

> <Dihedral Energy>
27.51318

> <OOPLane>
0.06909

> <Van der Waals Energy>
77.29012

> <Electrostatic Energy>
-73.20282

> <Hydrogen Bond Energy>
0

> <Solvation Free Energy>
0

> <HasGasteigerCharges>
true

> <REMARK99>
REMARK  99  MacroMolecule created from Mol2 file
REMARK  99  CHEMBL293499
REMARK  99  PROTEIN
REMARK  99  GASTEIGER
REMARK  99
REMARK  99

$$$$
CHEMBL2312706
  SciTegic05292516403D

 58 61  0  0  0  0            999 V2000
   30.3408  -16.0195   -0.3959 C   0  0
   30.0008  -17.2853   -0.8600 C   0  0
   30.9874  -18.2608   -1.0048 C   0  0
   32.3318  -17.9845   -0.6928 C   0  0
   32.6825  -16.6977   -0.2146 C   0  0
   31.6680  -15.7318   -0.0734 C   0  0
   34.0643  -16.3274    0.1356 C   0  0
   35.0382  -16.1496   -0.8565 C   0  0
   36.3619  -15.8366   -0.5260 C   0  0
   36.7301  -15.6766    0.8088 C   0  0
   35.7612  -15.8146    1.8038 C   0  0
   34.4429  -16.1404    1.4723 C   0  0
   37.9772  -15.3466    1.2689 O   0  0
   39.0864  -15.4698    0.3569 C   0  0  1  0  0  0
   39.1611  -14.2229   -0.5248 C   0  0
   38.5621  -13.1393    0.0309 O   0  0
   39.6842  -14.1815   -1.6271 O   0  0
   40.3569  -15.5711    1.2130 C   0  0
   41.5178  -16.2242    0.5044 C   0  0
   42.5098  -15.4479   -0.1062 C   0  0
   43.5785  -16.0611   -0.7607 C   0  0
   43.6667  -17.4508   -0.8150 C   0  0
   42.6792  -18.2318   -0.2198 C   0  0
   41.6089  -17.6222    0.4368 C   0  0
   33.3604  -19.0855   -0.8775 C   0  0
   33.7515  -19.7715    0.4367 C   0  0
   35.0928  -20.4606    0.3293 C   0  0
   35.2162  -21.6945   -0.3209 C   0  0
   36.4622  -22.3159   -0.4308 C   0  0
   37.5971  -21.7081    0.1035 C   0  0
   37.4873  -20.4768    0.7456 C   0  0
   36.2422  -19.8553    0.8561 C   0  0
   29.5773  -15.2522   -0.2902 H   0  0
   28.9681  -17.5095   -1.1171 H   0  0
   30.7077  -19.2442   -1.3745 H   0  0
   31.9201  -14.7339    0.2815 H   0  0
   34.7693  -16.2655   -1.9056 H   0  0
   37.0624  -15.7190   -1.3472 H   0  0
   36.0308  -15.6826    2.8489 H   0  0
   33.7093  -16.2633    2.2672 H   0  0
   38.9656  -16.3643   -0.2659 H   0  0
   38.1294  -13.3733    0.8800 H   0  0
   40.6564  -14.5794    1.5780 H   0  0
   40.1441  -16.1484    2.1236 H   0  0
   42.4594  -14.3605   -0.0850 H   0  0
   44.3461  -15.4516   -1.2313 H   0  0
   44.5072  -17.9186   -1.3231 H   0  0
   42.7383  -19.3158   -0.2690 H   0  0
   40.8447  -18.2465    0.8949 H   0  0
   32.9721  -19.8407   -1.5743 H   0  0
   34.2385  -18.6765   -1.3901 H   0  0
   33.7843  -19.0590    1.2690 H   0  0
   32.9849  -20.5055    0.7178 H   0  0
   34.3414  -22.1806   -0.7452 H   0  0
   36.5458  -23.2764   -0.9332 H   0  0
   38.5659  -22.1946    0.0189 H   0  0
   38.3701  -19.9998    1.1616 H   0  0
   36.1735  -18.8925    1.3566 H   0  0
  1  2  2  0
  1 33  1  0
  2  3  1  0
  2 34  1  0
  3  4  2  0
  3 35  1  0
  4  5  1  0
  4 25  1  0
  5  6  2  0
  5  7  1  0
  6  1  1  0
  6 36  1  0
  7  8  2  0
  8  9  1  0
  8 37  1  0
  9 10  2  0
  9 38  1  0
 10 11  1  0
 10 13  1  0
 11 12  2  0
 11 39  1  0
 12  7  1  0
 12 40  1  0
 13 14  1  0
 14 15  1  0
 14 18  1  0
 14 41  1  0
 15 16  1  0
 15 17  2  0
 16 42  1  0
 18 19  1  0
 18 43  1  0
 18 44  1  0
 19 20  2  0
 20 21  1  0
 20 45  1  0
 21 22  2  0
 21 46  1  0
 22 23  1  0
 22 47  1  0
 23 24  2  0
 23 48  1  0
 24 19  1  0
 24 49  1  0
 25 26  1  0
 25 50  1  0
 25 51  1  0
 26 27  1  0
 26 52  1  0
 26 53  1  0
 27 28  2  0
 28 29  1  0
 28 54  1  0
 29 30  2  0
 29 55  1  0
 30 31  1  0
 30 56  1  0
 31 32  2  0
 31 57  1  0
 32 27  1  0
 32 58  1  0
M  END
> <Name>
CHEMBL2312706

> <Clean Energy>
33.547798

> <chembl_id>
CHEMBL2312706

> <chembl_pref_name>
None

> <efficacy>
0.07

> <Forcefield>
MMFF

> <ForcefieldBase>
MMFF

> <ForcefieldFFML>
<?xml version="1.0" encoding="UTF-8"?>
<!DOCTYPE ffml SYSTEM "Ffml.dtd">
<ffml version="1.0">
<forcefield name="MMFF" derivedFrom="MMFF" base="MMFF">
<atomTypes>
<atomType
name="C100"
element="C"
mass="12.011"
annotation=""/>
<atomType
name="O101"
element="O"
mass="16"
annotation=""/>
<atomType
name="H102"
element="H"
mass="1.008"
annotation=""/>
</atomTypes>
<parameters>
</parameters>
</forcefield>
</ffml>

> <Initial Potential Energy>
209.66132

> <Initial RMS Gradient>
33.26342

> <Minimization Criteria>
STEEPD> Minimization exiting with gradient tolerance ( 3.0000000) satisfied.

> <CHARMm Energy>
99.36344

> <Potential Energy>
99.36344

> <RMS Gradient>
0.10914

> <Bond Energy>
8.14643

> <Angle Energy>
10.47329

> <STRBend>
-0.05163

> <Dihedral Energy>
9.62269

> <OOPLane>
0.02412

> <Van der Waals Energy>
70.27256

> <Electrostatic Energy>
0.87598

> <Hydrogen Bond Energy>
0

> <Solvation Free Energy>
0

> <HasGasteigerCharges>
true

> <REMARK99>
REMARK  99  MacroMolecule created from Mol2 file
REMARK  99  CHEMBL2312706
REMARK  99  PROTEIN
REMARK  99  GASTEIGER
REMARK  99
REMARK  99

$$$$
CHEMBL2322439
  SciTegic05292516403D

 72 78  0  0  0  0            999 V2000
    7.8876  -11.4828   -0.6671 C   0  0
    9.0806  -10.7584   -0.9166 N   0  0
    9.1406   -9.3620   -0.8570 C   0  0
    8.0658   -8.6259   -0.5221 C   0  0
    6.8046  -10.6532   -0.2051 C   0  0
    6.8701   -9.2876   -0.1730 C   0  0
    5.7259   -8.7082    0.2519 N   0  0
    4.9283   -9.7246    0.5503 C   0  0
    5.5777  -10.9439    0.3419 N   0  0
    3.5167   -9.5725    1.0357 C   0  0
    3.2226   -8.1656    1.5396 C   0  0
    5.1544  -12.2790    0.7324 C   0  0  1  0  0  0
    3.9019  -13.4451    2.5181 C   0  0
    5.0658  -12.4785    2.2610 C   0  0
    3.0632  -13.2791    1.2897 C   0  0
    3.7740  -12.6423    0.2686 C   0  0
    3.2353  -12.4945   -0.9998 C   0  0
    1.9513  -12.9812   -1.2313 C   0  0
    1.2181  -13.6220   -0.2090 C   0  0
    1.7835  -13.7570    1.0706 C   0  0
   -0.0906  -14.2123   -0.5163 C   0  0
   -1.2194  -13.3799   -0.6092 C   0  0
   -2.4688  -13.9051   -0.9306 C   0  0
   -2.6100  -15.2700   -1.1662 C   0  0
   -1.5032  -16.1140   -1.0736 C   0  0
   -0.2424  -15.5982   -0.7462 C   0  0
    0.8880  -16.5077   -0.6462 C   0  0
    1.1487  -17.2725    0.4556 N   0  0
    2.3003  -17.9403    0.2962 N   0  0
    2.7312  -17.5944   -0.9087 N   0  0
    1.8734  -16.6975   -1.5014 N   0  0
    7.8032  -12.6961   -0.8365 O   0  0
   10.2827  -11.5236   -1.2534 C   0  0
   10.7850  -12.2998   -0.0387 C   0  0
   10.1692  -12.4582    1.0107 O   0  0
   11.9788  -12.8867   -0.3304 O   0  0
   12.3340  -13.8983    0.6147 C   0  0
   13.6095  -14.5338    0.1259 C   0  0
   13.5691  -15.6856   -0.6751 C   0  0
   14.7475  -16.2490   -1.1594 C   0  0
   15.9729  -15.6613   -0.8528 C   0  0
   16.0246  -14.5137   -0.0640 C   0  0
   14.8484  -13.9494    0.4223 C   0  0
   10.0870   -8.8901   -1.0998 H   0  0
    8.1028   -7.5459   -0.4805 H   0  0
    2.8298   -9.7979    0.2129 H   0  0
    3.3036  -10.2688    1.8500 H   0  0
    2.1894   -8.1000    1.8956 H   0  0
    3.3525   -7.4225    0.7454 H   0  0
    3.8859   -7.8957    2.3684 H   0  0
    5.8382  -13.0227    0.3182 H   0  0
    4.2604  -14.4774    2.5886 H   0  0
    3.3578  -13.1794    3.4290 H   0  0
    4.8762  -11.5350    2.7869 H   0  0
    6.0066  -12.8637    2.6710 H   0  0
    3.8078  -12.0407   -1.8042 H   0  0
    1.5262  -12.8976   -2.2307 H   0  0
    1.2426  -14.2610    1.8659 H   0  0
   -1.1152  -12.3098   -0.4372 H   0  0
   -3.3296  -13.2458   -1.0084 H   0  0
   -3.5804  -15.6746   -1.4346 H   0  0
   -1.6260  -17.1747   -1.2796 H   0  0
    0.6455  -17.3358    1.3294 H   0  0
   10.0324  -12.2430   -2.0405 H   0  0
   11.0725  -10.8520   -1.6051 H   0  0
   12.4957  -13.4553    1.6052 H   0  0
   11.5408  -14.6527    0.6901 H   0  0
   12.6103  -16.1388   -0.9284 H   0  0
   14.7202  -17.1437   -1.7774 H   0  0
   16.8926  -16.0984   -1.2323 H   0  0
   16.9844  -14.0594    0.1684 H   0  0
   14.8978  -13.0454    1.0253 H   0  0
  1  2  1  0
  1 32  2  0
  2  3  1  0
  2 33  1  0
  3  4  2  0
  3 44  1  0
  4  6  1  0
  4 45  1  0
  5  1  1  0
  5  6  2  0
  6  7  1  0
  7  8  2  0
  8  9  1  0
  8 10  1  0
  9  5  1  0
 10 11  1  0
 10 46  1  0
 10 47  1  0
 11 48  1  0
 11 49  1  0
 11 50  1  0
 12  9  1  0
 12 16  1  0
 12 51  1  0
 13 14  1  0
 13 52  1  0
 13 53  1  0
 14 12  1  0
 14 54  1  0
 14 55  1  0
 15 13  1  0
 15 16  2  0
 16 17  1  0
 17 18  2  0
 17 56  1  0
 18 19  1  0
 18 57  1  0
 19 20  2  0
 19 21  1  0
 20 15  1  0
 20 58  1  0
 21 22  2  0
 22 23  1  0
 22 59  1  0
 23 24  2  0
 23 60  1  0
 24 25  1  0
 24 61  1  0
 25 26  2  0
 25 62  1  0
 26 21  1  0
 26 27  1  0
 27 28  1  0
 28 29  1  0
 28 63  1  0
 29 30  2  0
 30 31  1  0
 31 27  2  0
 33 34  1  0
 33 64  1  0
 33 65  1  0
 34 35  2  0
 36 34  1  0
 36 37  1  0
 37 38  1  0
 37 66  1  0
 37 67  1  0
 38 39  2  0
 39 40  1  0
 39 68  1  0
 40 41  2  0
 40 69  1  0
 41 42  1  0
 41 70  1  0
 42 43  2  0
 42 71  1  0
 43 38  1  0
 43 72  1  0
M  END
> <Name>
CHEMBL2322439

> <Clean Energy>
102.546997

> <chembl_id>
CHEMBL2322439

> <chembl_pref_name>
None

> <efficacy>
0.293478261

> <Forcefield>
MMFF

> <ForcefieldBase>
MMFF

> <ForcefieldFFML>
<?xml version="1.0" encoding="UTF-8"?>
<!DOCTYPE ffml SYSTEM "Ffml.dtd">
<ffml version="1.0">
<forcefield name="MMFF" derivedFrom="MMFF" base="MMFF">
<atomTypes>
<atomType
name="C100"
element="C"
mass="12.011"
annotation=""/>
<atomType
name="N101"
element="N"
mass="14.007"
annotation=""/>
<atomType
name="O102"
element="O"
mass="16"
annotation=""/>
<atomType
name="H103"
element="H"
mass="1.008"
annotation=""/>
</atomTypes>
<parameters>
</parameters>
</forcefield>
</ffml>

> <Initial Potential Energy>
253.43859

> <Initial RMS Gradient>
35.61604

> <Minimization Criteria>
STEEPD> Minimization exiting with gradient tolerance ( 3.0000000) satisfied.

> <CHARMm Energy>
74.2088

> <Potential Energy>
74.2088

> <RMS Gradient>
0.02664

> <Bond Energy>
9.17156

> <Angle Energy>
17.59602

> <STRBend>
-0.6578

> <Dihedral Energy>
16.95032

> <OOPLane>
0.45409

> <Van der Waals Energy>
73.31714

> <Electrostatic Energy>
-42.62253

> <Hydrogen Bond Energy>
0

> <Solvation Free Energy>
0

> <HasGasteigerCharges>
true

> <REMARK99>
REMARK  99  MacroMolecule created from Mol2 file
REMARK  99  CHEMBL2322439
REMARK  99  PROTEIN
REMARK  99  GASTEIGER
REMARK  99
REMARK  99

$$$$
CHEMBL1172962
  SciTegic05292516403D

 45 47  0  0  0  0            999 V2000
    2.6387   -7.5778    0.5982 C   0  0
    3.8319   -8.0923    0.3018 N   0  0
    3.8499   -9.3506   -0.1786 C   0  0
    2.6971  -10.0915   -0.3744 C   0  0
    1.5046   -9.4963   -0.0176 C   0  0
    1.4823   -8.2355    0.4608 N   0  0
    2.7762  -11.4418   -0.9141 C   0  0
    2.7399  -12.4771   -0.2792 O   0  0
    2.8676  -11.4117   -2.2552 O   0  0
    0.2506  -10.0209   -0.0832 N   0  0
   -0.1721  -11.3676   -0.3804 C   0  0
   -2.4811  -11.0654   -1.3643 C   0  0
   -1.6765  -11.4427   -0.2839 C   0  0
   -2.2954  -11.8410    0.9057 C   0  0
   -3.6790  -11.8601    0.9580 C   0  0
    2.6331   -5.9207    1.2314 S   0  0
    5.4685  -10.0156   -0.5440 S   0  0
    6.5304   -8.7586    0.2419 C   0  0
    7.9710   -9.1885    0.1582 C   0  0
    8.7104   -8.9427   -1.0083 C   0  0
   10.0171   -9.4045   -1.1171 C   0  0
   10.5903  -10.1108   -0.0622 C   0  0
    9.8720  -10.3531    1.1059 C   0  0
    8.5624   -9.8965    1.2157 C   0  0
    0.8526   -5.6050    1.3066 C   0  0
   -4.4674  -11.5029   -0.0761 N   0  0
   -3.8568  -11.1167   -1.2148 C   0  0
    2.9835  -12.3476   -2.5248 H   0  0
   -0.4588   -9.3722    0.2412 H   0  0
    0.1302  -11.6639   -1.3911 H   0  0
    0.2675  -12.0783    0.3280 H   0  0
   -2.0450  -10.7313   -2.3003 H   0  0
   -1.7109  -12.1255    1.7753 H   0  0
   -4.2064  -12.1673    1.8571 H   0  0
    6.4065   -7.7916   -0.2590 H   0  0
    6.2455   -8.6276    1.2921 H   0  0
    8.2593   -8.4096   -1.8422 H   0  0
   10.5929   -9.2230   -2.0218 H   0  0
   11.6051  -10.4796   -0.1526 H   0  0
   10.3393  -10.9034    1.9199 H   0  0
    7.9969  -10.1088    2.1202 H   0  0
    0.6884   -4.5851    1.6651 H   0  0
    0.3637   -6.2936    2.0013 H   0  0
    0.3992   -5.6961    0.3155 H   0  0
   -4.5241  -10.8376   -2.0257 H   0  0
  1  2  1  0
  1  6  2  0
  1 16  1  0
  2  3  2  0
  3  4  1  0
  3 17  1  0
  4  5  2  0
  4  7  1  0
  5  6  1  0
  5 10  1  0
  7  8  2  0
  7  9  1  0
  9 28  1  0
 10 11  1  0
 10 29  1  0
 11 13  1  0
 11 30  1  0
 11 31  1  0
 12 13  1  0
 12 27  2  0
 12 32  1  0
 13 14  2  0
 14 15  1  0
 14 33  1  0
 15 26  2  0
 15 34  1  0
 16 25  1  0
 17 18  1  0
 18 19  1  0
 18 35  1  0
 18 36  1  0
 19 20  1  0
 19 24  2  0
 20 21  2  0
 20 37  1  0
 21 22  1  0
 21 38  1  0
 22 23  2  0
 22 39  1  0
 23 24  1  0
 23 40  1  0
 24 41  1  0
 25 42  1  0
 25 43  1  0
 25 44  1  0
 26 27  1  0
 27 45  1  0
M  END
> <Name>
CHEMBL1172962

> <Clean Energy>
19.927099

> <chembl_id>
CHEMBL1172962

> <chembl_pref_name>
None

> <efficacy>
0.45

> <Forcefield>
MMFF

> <ForcefieldBase>
MMFF

> <ForcefieldFFML>
<?xml version="1.0" encoding="UTF-8"?>
<!DOCTYPE ffml SYSTEM "Ffml.dtd">
<ffml version="1.0">
<forcefield name="MMFF" derivedFrom="MMFF" base="MMFF">
<atomTypes>
<atomType
name="C100"
element="C"
mass="12.011"
annotation=""/>
<atomType
name="N101"
element="N"
mass="14.007"
annotation=""/>
<atomType
name="O102"
element="O"
mass="16"
annotation=""/>
<atomType
name="S103"
element="S"
mass="32.066"
annotation=""/>
<atomType
name="H104"
element="H"
mass="1.008"
annotation=""/>
</atomTypes>
<parameters>
</parameters>
</forcefield>
</ffml>

> <Initial Potential Energy>
84.48091

> <Initial RMS Gradient>
35.36942

> <Minimization Criteria>
CONJUG> Minimization exiting with gradient tolerance ( 0.0100000) satisfied.

> <CHARMm Energy>
-47.19355

> <Potential Energy>
-47.19355

> <RMS Gradient>
0.00788

> <Bond Energy>
3.46343

> <Angle Energy>
20.35904

> <STRBend>
-1.3941

> <Dihedral Energy>
11.38438

> <OOPLane>
0.14685

> <Van der Waals Energy>
51.60616

> <Electrostatic Energy>
-132.75932

> <Hydrogen Bond Energy>
0

> <Solvation Free Energy>
0

> <HasGasteigerCharges>
true

> <REMARK99>
REMARK  99  MacroMolecule created from Mol2 file
REMARK  99  CHEMBL1172962
REMARK  99  PROTEIN
REMARK  99  GASTEIGER
REMARK  99
REMARK  99

$$$$
CHEMBL2424951
  SciTegic05292516403D

 52 55  0  0  0  0            999 V2000
   12.6913   -7.6859   -0.7829 S   0  0
   13.5020   -8.1901   -1.8681 O   0  0
   11.8123   -6.5449   -0.9307 O   0  0
   15.6144   -5.9625   -0.0194 C   0  0
   15.0833   -7.2117    0.2831 C   0  0
   15.9313   -8.3174    0.2233 C   0  0
   17.2596   -8.2496   -0.0520 N   0  0
   17.7588   -7.0179   -0.3104 C   0  0
   16.9731   -5.8613   -0.3252 C   0  0
   19.0932   -6.8969   -0.6350 O   0  0
   19.9682   -7.9140   -0.1236 C   0  0
   20.6101   -8.6560   -1.2971 C   0  0
   21.7106   -9.6123   -0.8341 C   0  0
   22.6775   -8.9019    0.0123 N   0  0
   22.1027   -8.1924    1.1640 C   0  0
   21.0469   -7.2048    0.6946 C   0  0
   24.0204   -9.2511    0.0393 C   0  0
   24.4782  -10.5503   -0.2287 C   0  0
   25.8398  -10.8679   -0.1959 C   0  0
   26.7753   -9.8816    0.0978 C   0  0
   26.3535   -8.5816    0.3531 C   0  0
   24.9918   -8.2767    0.3216 C   0  0
   17.6293   -4.3066   -0.6837 Cl  0  0
   13.6806   -7.3580    0.5698 N   0  0
   11.7014   -9.0296   -0.1653 C   0  0
   10.5767   -8.7469    0.6175 C   0  0
    9.7664   -9.7940    1.0614 C   0  0
   10.0758  -11.1081    0.7168 C   0  0
   11.1938  -11.3871   -0.0690 C   0  0
   12.0088  -10.3472   -0.5210 C   0  0
   11.5943  -13.0086   -0.4869 Cl  0  0
    9.2773  -12.0944    1.1525 F   0  0
   14.9915   -5.0739   -0.0267 H   0  0
   15.5595   -9.3202    0.4134 H   0  0
   19.4618   -8.6322    0.5333 H   0  0
   19.8425   -9.2065   -1.8540 H   0  0
   21.0275   -7.9270   -2.0046 H   0  0
   21.2767  -10.4507   -0.2755 H   0  0
   22.1949  -10.0214   -1.7290 H   0  0
   21.6606   -8.9248    1.8515 H   0  0
   22.8557   -7.6435    1.7402 H   0  0
   21.5110   -6.4114    0.0937 H   0  0
   20.5895   -6.7021    1.5554 H   0  0
   23.7691  -11.3440   -0.4461 H   0  0
   26.1706  -11.8835   -0.3987 H   0  0
   27.8328  -10.1252    0.1197 H   0  0
   27.0813   -7.8031    0.5658 H   0  0
   24.6721   -7.2497    0.4843 H   0  0
   13.2794   -6.5262    1.0155 H   0  0
   10.3066   -7.7228    0.8701 H   0  0
    8.8876   -9.5930    1.6665 H   0  0
   12.8703  -10.5649   -1.1483 H   0  0
  1  3  2  0
  1 25  1  0
  2  1  2  0
  4  5  2  0
  4 33  1  0
  5  6  1  0
  5 24  1  0
  6  7  2  0
  6 34  1  0
  7  8  1  0
  8  9  2  0
  8 10  1  0
  9  4  1  0
  9 23  1  0
 10 11  1  0
 11 12  1  0
 11 16  1  0
 11 35  1  0
 12 13  1  0
 12 36  1  0
 12 37  1  0
 13 14  1  0
 13 38  1  0
 13 39  1  0
 14 15  1  0
 14 17  1  0
 15 16  1  0
 15 40  1  0
 15 41  1  0
 16 42  1  0
 16 43  1  0
 17 18  2  0
 18 19  1  0
 18 44  1  0
 19 20  2  0
 19 45  1  0
 20 21  1  0
 20 46  1  0
 21 22  2  0
 21 47  1  0
 22 17  1  0
 22 48  1  0
 24  1  1  0
 24 49  1  0
 25 26  2  0
 26 27  1  0
 26 50  1  0
 27 28  2  0
 27 51  1  0
 28 29  1  0
 28 32  1  0
 29 30  2  0
 29 31  1  0
 30 25  1  0
 30 52  1  0
M  END
> <Name>
CHEMBL2424951

> <Clean Energy>
10.2423

> <chembl_id>
CHEMBL2424951

> <chembl_pref_name>
None

> <efficacy>
0.1

> <Forcefield>
MMFF

> <ForcefieldBase>
MMFF

> <ForcefieldFFML>
<?xml version="1.0" encoding="UTF-8"?>
<!DOCTYPE ffml SYSTEM "Ffml.dtd">
<ffml version="1.0">
<forcefield name="MMFF" derivedFrom="MMFF" base="MMFF">
<atomTypes>
<atomType
name="S100"
element="S"
mass="32.066"
annotation=""/>
<atomType
name="O101"
element="O"
mass="16"
annotation=""/>
<atomType
name="C102"
element="C"
mass="12.011"
annotation=""/>
<atomType
name="N103"
element="N"
mass="14.007"
annotation=""/>
<atomType
name="Cl104"
element="Cl"
mass="35.453"
annotation=""/>
<atomType
name="F105"
element="F"
mass="18.998"
annotation=""/>
<atomType
name="H106"
element="H"
mass="1.008"
annotation=""/>
</atomTypes>
<parameters>
</parameters>
</forcefield>
</ffml>

> <Initial Potential Energy>
99.09262

> <Initial RMS Gradient>
33.17442

> <Minimization Criteria>
STEEPD> Minimization exiting with gradient tolerance ( 3.0000000) satisfied.

> <CHARMm Energy>
15.90243

> <Potential Energy>
15.90243

> <RMS Gradient>
0.07149

> <Bond Energy>
4.72856

> <Angle Energy>
17.43275

> <STRBend>
1.13864

> <Dihedral Energy>
12.23192

> <OOPLane>
0.83189

> <Van der Waals Energy>
60.59534

> <Electrostatic Energy>
-81.05668

> <Hydrogen Bond Energy>
0

> <Solvation Free Energy>
0

> <HasGasteigerCharges>
true

> <REMARK99>
REMARK  99  MacroMolecule created from Mol2 file
REMARK  99  CHEMBL2424951
REMARK  99  PROTEIN
REMARK  99  GASTEIGER
REMARK  99
REMARK  99

$$$$
CHEMBL1170853
  SciTegic05292516403D

 36 37  0  0  0  0            999 V2000
    4.3259   -6.7209    0.1612 C   0  0
    3.3623   -7.5295   -0.2813 N   0  0
    3.7298   -8.7793   -0.6344 C   0  0
    5.0327   -9.2281   -0.5532 C   0  0
    5.9727   -8.3164   -0.1010 C   0  0
    5.6112   -7.0732    0.2749 N   0  0
    5.4526  -10.5826   -0.9160 C   0  0
    6.3857  -10.8630   -1.6464 O   0  0
    4.7548  -11.5279   -0.2614 O   0  0
    3.9016   -5.0782    0.6783 S   0  0
    7.3004   -8.6795    0.0719 N   0  0
    2.3651   -9.7623   -1.2136 S   0  0
    1.6428  -10.0978    0.4204 C   0  0
    0.2958  -10.7517    0.2964 C   0  0
    0.1837  -12.1478    0.2335 C   0  0
   -1.0668  -12.7441    0.0963 C   0  0
   -2.2075  -11.9489    0.0158 C   0  0
   -2.1083  -10.5611    0.0732 C   0  0
   -0.8605   -9.9627    0.2107 C   0  0
    2.2565   -4.9241   -0.0595 C   0  0
    8.2196   -7.7424    0.6751 C   0  0
    5.1508  -12.3755   -0.5576 H   0  0
    7.6913   -9.3517   -0.5858 H   0  0
    2.3197  -10.7402    0.9952 H   0  0
    1.5376   -9.1663    0.9889 H   0  0
    1.0709  -12.7747    0.2833 H   0  0
   -1.1585  -13.8263    0.0459 H   0  0
   -3.1801  -12.4131   -0.0967 H   0  0
   -3.0035   -9.9487    0.0050 H   0  0
   -0.7909   -8.8776    0.2424 H   0  0
    1.8731   -3.9181    0.1334 H   0  0
    1.5611   -5.6438    0.3817 H   0  0
    2.3031   -5.0717   -1.1421 H   0  0
    9.2099   -8.2028    0.7485 H   0  0
    7.9061   -7.4718    1.6892 H   0  0
    8.3195   -6.8351    0.0696 H   0  0
  1  2  1  0
  1  6  2  0
  1 10  1  0
  2  3  2  0
  3  4  1  0
  3 12  1  0
  4  5  2  0
  4  7  1  0
  5  6  1  0
  5 11  1  0
  7  8  2  0
  7  9  1  0
  9 22  1  0
 10 20  1  0
 11 21  1  0
 11 23  1  0
 12 13  1  0
 13 14  1  0
 13 24  1  0
 13 25  1  0
 14 15  1  0
 14 19  2  0
 15 16  2  0
 15 26  1  0
 16 17  1  0
 16 27  1  0
 17 18  2  0
 17 28  1  0
 18 19  1  0
 18 29  1  0
 19 30  1  0
 20 31  1  0
 20 32  1  0
 20 33  1  0
 21 34  1  0
 21 35  1  0
 21 36  1  0
M  END
> <Name>
CHEMBL1170853

> <Clean Energy>
13.4686

> <chembl_id>
CHEMBL1170853

> <chembl_pref_name>
None

> <efficacy>
0.37

> <Forcefield>
MMFF

> <ForcefieldBase>
MMFF

> <ForcefieldFFML>
<?xml version="1.0" encoding="UTF-8"?>
<!DOCTYPE ffml SYSTEM "Ffml.dtd">
<ffml version="1.0">
<forcefield name="MMFF" derivedFrom="MMFF" base="MMFF">
<atomTypes>
<atomType
name="C100"
element="C"
mass="12.011"
annotation=""/>
<atomType
name="N101"
element="N"
mass="14.007"
annotation=""/>
<atomType
name="O102"
element="O"
mass="16"
annotation=""/>
<atomType
name="S103"
element="S"
mass="32.066"
annotation=""/>
<atomType
name="H104"
element="H"
mass="1.008"
annotation=""/>
</atomTypes>
<parameters>
</parameters>
</forcefield>
</ffml>

> <Initial Potential Energy>
47.54524

> <Initial RMS Gradient>
36.06059

> <Minimization Criteria>
STEEPD> Minimization exiting with gradient tolerance ( 3.0000000) satisfied.

> <CHARMm Energy>
-56.02382

> <Potential Energy>
-56.02382

> <RMS Gradient>
0.09204

> <Bond Energy>
1.74377

> <Angle Energy>
12.44337

> <STRBend>
-0.1607

> <Dihedral Energy>
14.20212

> <OOPLane>
1.42419

> <Van der Waals Energy>
37.21181

> <Electrostatic Energy>
-122.88839

> <Hydrogen Bond Energy>
0

> <Solvation Free Energy>
0

> <HasGasteigerCharges>
true

> <REMARK99>
REMARK  99  MacroMolecule created from Mol2 file
REMARK  99  CHEMBL1170853
REMARK  99  PROTEIN
REMARK  99  GASTEIGER
REMARK  99
REMARK  99

$$$$
CHEMBL4787702
  SciTegic05292516403D

 57 60  0  0  0  0            999 V2000
    7.9726   -8.9516   -0.0700 C   0  0
    9.4004   -8.4848    0.1312 C   0  0
   10.4487   -9.0403   -0.6138 C   0  0
   11.7640   -8.5986   -0.4272 C   0  0
   12.0637   -7.5983    0.5065 C   0  0
   11.0150   -7.0548    1.2545 C   0  0
    9.6962   -7.4858    1.0675 C   0  0
   13.3890   -7.1963    0.7691 N   0  0
   13.9117   -6.6709   -0.2398 N   0  0
   15.2688   -6.3612    0.0054 C   0  0
   16.2070   -7.3634    0.3030 C   0  0
   17.5497   -7.0457    0.4964 C   0  0
   17.9660   -5.7219    0.3833 C   0  0
   17.0551   -4.7129    0.0809 C   0  0
   15.7111   -5.0351   -0.1120 C   0  0
    7.1403   -8.0023   -0.9501 C   0  0  2  0  0  0
    5.7009   -8.2407   -0.7261 N   0  0
    7.4532   -8.2762   -2.4378 C   0  0
    8.6161   -7.7351   -2.8780 O   0  0
    6.7156   -8.9214   -3.1769 O   0  0
    4.9191   -7.6952    0.2758 C   0  0
    5.4400   -6.8416    1.2584 C   0  0
    4.6313   -6.2931    2.2638 C   0  0
    3.2723   -6.5892    2.3174 C   0  0
    2.7241   -7.4503    1.3752 C   0  0
    3.5481   -8.0108    0.3863 C   0  0
    2.9016   -8.9455   -0.5524 C   0  0
    3.1761  -10.4095   -0.4906 C   0  0
    2.1012   -8.4899   -1.3643 O   0  0
    2.6510  -11.2251   -1.5014 C   0  0
    2.8653  -12.6044   -1.4765 C   0  0
    3.5961  -13.1802   -0.4391 C   0  0
    4.1188  -12.3761    0.5723 C   0  0
    3.9070  -10.9944    0.5513 C   0  0
    7.9747   -9.9641   -0.4961 H   0  0
    7.5173   -9.0596    0.9233 H   0  0
   10.2577   -9.8275   -1.3427 H   0  0
   12.5684   -9.0485   -1.0051 H   0  0
   11.2325   -6.2958    2.0023 H   0  0
    8.9103   -7.0494    1.6807 H   0  0
   15.8831   -8.3977    0.3806 H   0  0
   18.2801   -7.8193    0.7291 H   0  0
   19.0147   -5.4740    0.5273 H   0  0
   17.4096   -3.6856   -0.0056 H   0  0
   15.0011   -4.2502   -0.3568 H   0  0
    7.3629   -6.9435   -0.7733 H   0  0
    5.2296   -8.7010   -1.5109 H   0  0
    9.1075   -7.2214   -2.2075 H   0  0
    6.4896   -6.5649    1.2591 H   0  0
    5.0635   -5.6212    3.0019 H   0  0
    2.6467   -6.1497    3.0894 H   0  0
    1.6630   -7.6886    1.4044 H   0  0
    2.0634  -10.7922   -2.3102 H   0  0
    2.4520  -13.2291   -2.2646 H   0  0
    3.7508  -14.2567   -0.4196 H   0  0
    4.6968  -12.8214    1.3786 H   0  0
    4.3193  -10.3954    1.3581 H   0  0
  1  2  1  0
  1 16  1  0
  1 35  1  0
  1 36  1  0
  2  3  2  0
  3  4  1  0
  3 37  1  0
  4  5  2  0
  4 38  1  0
  5  6  1  0
  5  8  1  0
  6  7  2  0
  6 39  1  0
  7  2  1  0
  7 40  1  0
  8  9  2  0
  9 10  1  0
 10 11  2  0
 11 12  1  0
 11 41  1  0
 12 13  2  0
 12 42  1  0
 13 14  1  0
 13 43  1  0
 14 15  2  0
 14 44  1  0
 15 10  1  0
 15 45  1  0
 16 17  1  0
 16 18  1  0
 16 46  1  0
 17 21  1  0
 17 47  1  0
 18 19  1  0
 18 20  2  0
 19 48  1  0
 21 22  2  0
 22 23  1  0
 22 49  1  0
 23 24  2  0
 23 50  1  0
 24 25  1  0
 24 51  1  0
 25 26  2  0
 25 52  1  0
 26 21  1  0
 26 27  1  0
 27 28  1  0
 27 29  2  0
 28 30  2  0
 30 31  1  0
 30 53  1  0
 31 32  2  0
 31 54  1  0
 32 33  1  0
 32 55  1  0
 33 34  2  0
 33 56  1  0
 34 28  1  0
 34 57  1  0
M  END
> <Name>
CHEMBL4787702

> <Clean Energy>
31.409401

> <chembl_id>
CHEMBL4787702

> <chembl_pref_name>
None

> <efficacy>
0.284900285

> <Forcefield>
MMFF

> <ForcefieldBase>
MMFF

> <ForcefieldFFML>
<?xml version="1.0" encoding="UTF-8"?>
<!DOCTYPE ffml SYSTEM "Ffml.dtd">
<ffml version="1.0">
<forcefield name="MMFF" derivedFrom="MMFF" base="MMFF">
<atomTypes>
<atomType
name="C100"
element="C"
mass="12.011"
annotation=""/>
<atomType
name="N101"
element="N"
mass="14.007"
annotation=""/>
<atomType
name="O102"
element="O"
mass="16"
annotation=""/>
<atomType
name="H103"
element="H"
mass="1.008"
annotation=""/>
</atomTypes>
<parameters>
</parameters>
</forcefield>
</ffml>

> <Initial Potential Energy>
346.01068

> <Initial RMS Gradient>
53.18132

> <Minimization Criteria>
CONJUG> Minimization exiting with gradient tolerance ( 0.0100000) satisfied.

> <CHARMm Energy>
159.11789

> <Potential Energy>
159.11789

> <RMS Gradient>
0.00961

> <Bond Energy>
8.40947

> <Angle Energy>
12.92673

> <STRBend>
0.58292

> <Dihedral Energy>
18.33225

> <OOPLane>
0.34001

> <Van der Waals Energy>
70.04461

> <Electrostatic Energy>
48.48191

> <Hydrogen Bond Energy>
0

> <Solvation Free Energy>
0

> <HasGasteigerCharges>
true

> <REMARK99>
REMARK  99  MacroMolecule created from Mol2 file
REMARK  99  CHEMBL4787702
REMARK  99  PROTEIN
REMARK  99  GASTEIGER
REMARK  99
REMARK  99

$$$$
CHEMBL2331770
  SciTegic05292516403D

 40 42  0  0  0  0            999 V2000
   17.4237   -4.0386   -0.2425 C   0  0
   16.7949   -4.8345    0.7224 C   0  0
   16.1952   -4.2483    1.8422 C   0  0
   16.1488   -2.8600    1.9551 C   0  0
   16.6943   -2.0571    0.9513 C   0  0
   17.3567   -2.6422   -0.1285 C   0  0
   15.6807    0.1486   -0.2136 S   0  0
   16.5023   -0.6493    1.0373 N   0  0
   14.2558   -0.8688   -0.5127 C   0  0
   13.2714   -1.0592    0.4615 C   0  0
   12.1804   -1.8919    0.1855 C   0  0
   12.0749   -2.5215   -1.0533 C   0  0
   13.0504   -2.3306   -2.0277 C   0  0
   14.1422   -1.5030   -1.7605 C   0  0
   16.7649   -6.2049    0.5861 O   0  0
   14.5845   -6.2207   -0.5221 C   0  0
   15.5184   -6.7483    0.3672 C   0  0
   15.1921   -7.9125    1.0581 C   0  0
   13.9341   -8.4768    0.8716 C   0  0
   13.0555   -7.8660   -0.0121 C   0  0
   13.3542   -6.7481   -0.7173 N   0  0
   13.4763   -9.8881    1.7341 Cl  0  0
   15.2241    1.4159    0.3143 O   0  0
   16.5150    0.1119   -1.3959 O   0  0
   10.7317   -3.5444   -1.3767 Cl  0  0
   13.3305   -0.3650    2.0419 Cl  0  0
   18.0815   -4.5970   -1.4487 C   0  0
   18.6758   -5.7929   -1.2679 O   0  0
   18.1014   -3.9984   -2.5100 O   0  0
   15.7356   -4.8645    2.6120 H   0  0
   15.6509   -2.4181    2.8151 H   0  0
   17.8128   -2.0200   -0.8982 H   0  0
   16.2537   -0.2494    1.9434 H   0  0
   11.4121   -2.0558    0.9379 H   0  0
   12.9677   -2.8230   -2.9945 H   0  0
   14.9008   -1.3651   -2.5307 H   0  0
   14.7920   -5.3403   -1.1234 H   0  0
   15.9038   -8.3644    1.7417 H   0  0
   12.0594   -8.2627   -0.1865 H   0  0
   18.5885   -6.1712   -0.3719 H   0  0
  1  2  1  0
  1  6  2  0
  1 27  1  0
  2  3  2  0
  2 15  1  0
  3  4  1  0
  3 30  1  0
  4  5  2  0
  4 31  1  0
  5  6  1  0
  5  8  1  0
  6 32  1  0
  7  8  1  0
  7  9  1  0
  7 23  2  0
  7 24  2  0
  8 33  1  0
  9 10  1  0
  9 14  2  0
 10 11  2  0
 10 26  1  0
 11 12  1  0
 11 34  1  0
 12 13  2  0
 12 25  1  0
 13 14  1  0
 13 35  1  0
 14 36  1  0
 15 17  1  0
 16 17  1  0
 16 21  2  0
 16 37  1  0
 17 18  2  0
 18 19  1  0
 18 38  1  0
 19 20  2  0
 19 22  1  0
 20 21  1  0
 20 39  1  0
 27 28  1  0
 27 29  2  0
 28 40  1  0
M  END
> <Name>
CHEMBL2331770

> <Clean Energy>
32.0462

> <chembl_id>
CHEMBL2331770

> <chembl_pref_name>
None

> <efficacy>
0

> <Forcefield>
MMFF

> <ForcefieldBase>
MMFF

> <ForcefieldFFML>
<?xml version="1.0" encoding="UTF-8"?>
<!DOCTYPE ffml SYSTEM "Ffml.dtd">
<ffml version="1.0">
<forcefield name="MMFF" derivedFrom="MMFF" base="MMFF">
<atomTypes>
<atomType
name="C100"
element="C"
mass="12.011"
annotation=""/>
<atomType
name="S101"
element="S"
mass="32.066"
annotation=""/>
<atomType
name="N102"
element="N"
mass="14.007"
annotation=""/>
<atomType
name="O103"
element="O"
mass="16"
annotation=""/>
<atomType
name="Cl104"
element="Cl"
mass="35.453"
annotation=""/>
<atomType
name="H105"
element="H"
mass="1.008"
annotation=""/>
</atomTypes>
<parameters>
</parameters>
</forcefield>
</ffml>

> <Initial Potential Energy>
437.53796

> <Initial RMS Gradient>
150.80525

> <Minimization Criteria>
STEEPD> Minimization exiting with gradient tolerance ( 3.0000000) satisfied.

> <CHARMm Energy>
4.60559

> <Potential Energy>
4.60559

> <RMS Gradient>
0.19873

> <Bond Energy>
3.83829

> <Angle Energy>
13.65615

> <STRBend>
1.32458

> <Dihedral Energy>
10.97185

> <OOPLane>
0.07827

> <Van der Waals Energy>
53.86702

> <Electrostatic Energy>
-79.13057

> <Hydrogen Bond Energy>
0

> <Solvation Free Energy>
0

> <HasGasteigerCharges>
true

> <REMARK99>
REMARK  99  MacroMolecule created from Mol2 file
REMARK  99  CHEMBL2331770
REMARK  99  PROTEIN
REMARK  99  GASTEIGER
REMARK  99
REMARK  99

$$$$
CHEMBL4870332
  SciTegic05292516403D

 50 53  0  0  0  0            999 V2000
   24.8731  -12.7132    1.4640 C   0  0
   25.0526  -13.9442    0.8384 C   0  0
   26.1929  -14.2072    0.0604 C   0  0
   25.8557  -11.7296    1.3093 C   0  0
   27.0234  -11.9550    0.5688 C   0  0
   27.1632  -13.1961   -0.0560 C   0  0
   28.3634  -13.1055   -0.7323 N   0  0
   28.9148  -11.8665   -0.4622 C   0  0
   28.1187  -11.1688    0.3230 N   0  0
   30.2436  -11.4077   -0.9814 C   0  0
   30.4693   -9.9082   -0.7761 C   0  0
   31.8360   -9.4757   -1.2818 C   0  0
   28.8966  -14.1063   -1.6496 C   0  0
   30.1109  -14.8110   -1.0994 C   0  0
   30.0198  -15.6357    0.0286 C   0  0
   31.1565  -16.2734    0.5369 C   0  0
   32.4129  -16.1020   -0.0638 C   0  0
   32.4958  -15.2817   -1.1970 C   0  0
   31.3591  -14.6556   -1.7169 C   0  0
   33.6174  -16.7238    0.5147 C   0  0
   34.3694  -17.7221   -0.1411 C   0  0
   35.5171  -18.2541    0.4681 C   0  0
   35.9250  -17.8096    1.7247 C   0  0
   35.1908  -16.8310    2.3847 C   0  0
   34.0516  -16.2944    1.7853 C   0  0
   25.6754  -10.4333    1.9074 N   0  3
   25.6682  -10.3872    3.1465 O   0  0
   25.4546   -9.4788    1.1486 O   0  5
   33.9940  -18.2354   -1.4300 C   0  0
   33.7069  -18.6542   -2.4741 N   0  0
   23.9806  -12.5206    2.0545 H   0  0
   24.2964  -14.7197    0.9464 H   0  0
   26.3045  -15.1692   -0.4298 H   0  0
   31.0334  -11.9620   -0.4618 H   0  0
   30.3214  -11.6333   -2.0511 H   0  0
   29.6928   -9.3370   -1.3000 H   0  0
   30.3884   -9.6552    0.2887 H   0  0
   31.9703   -8.3989   -1.1340 H   0  0
   31.9475   -9.6882   -2.3499 H   0  0
   32.6360   -9.9936   -0.7428 H   0  0
   28.1147  -14.8395   -1.8733 H   0  0
   29.1171  -13.5917   -2.5919 H   0  0
   29.0655  -15.7846    0.5305 H   0  0
   31.0544  -16.9036    1.4191 H   0  0
   33.4541  -15.1060   -1.6805 H   0  0
   31.4675  -14.0306   -2.6015 H   0  0
   36.0973  -19.0200   -0.0397 H   0  0
   36.8147  -18.2241    2.1898 H   0  0
   35.5086  -16.4820    3.3644 H   0  0
   33.4977  -15.5177    2.3130 H   0  0
  1  2  2  0
  1 31  1  0
  2  3  1  0
  2 32  1  0
  3  6  2  0
  3 33  1  0
  4  1  1  0
  4 26  1  0
  5  4  2  0
  5  6  1  0
  6  7  1  0
  7  8  1  0
  7 13  1  0
  8  9  2  0
  8 10  1  0
  9  5  1  0
 10 11  1  0
 10 34  1  0
 10 35  1  0
 11 12  1  0
 11 36  1  0
 11 37  1  0
 12 38  1  0
 12 39  1  0
 12 40  1  0
 13 14  1  0
 13 41  1  0
 13 42  1  0
 14 15  2  0
 15 16  1  0
 15 43  1  0
 16 17  2  0
 16 44  1  0
 17 18  1  0
 17 20  1  0
 18 19  2  0
 18 45  1  0
 19 14  1  0
 19 46  1  0
 20 21  2  0
 21 22  1  0
 21 29  1  0
 22 23  2  0
 22 47  1  0
 23 24  1  0
 23 48  1  0
 24 25  2  0
 24 49  1  0
 25 20  1  0
 25 50  1  0
 26 27  2  0
 26 28  1  0
 29 30  3  0
M  CHG  2  26   1  28  -1
M  END
> <Name>
CHEMBL4870332

> <Clean Energy>
70.6381

> <chembl_id>
CHEMBL4870332

> <chembl_pref_name>
None

> <efficacy>
0.359924027

> <Forcefield>
MMFF

> <ForcefieldBase>
MMFF

> <ForcefieldFFML>
<?xml version="1.0" encoding="UTF-8"?>
<!DOCTYPE ffml SYSTEM "Ffml.dtd">
<ffml version="1.0">
<forcefield name="MMFF" derivedFrom="MMFF" base="MMFF">
<atomTypes>
<atomType
name="C100"
element="C"
mass="12.011"
annotation=""/>
<atomType
name="N101"
element="N"
mass="14.007"
annotation=""/>
<atomType
name="O102"
element="O"
mass="16"
annotation=""/>
<atomType
name="H103"
element="H"
mass="1.008"
annotation=""/>
</atomTypes>
<parameters>
</parameters>
</forcefield>
</ffml>

> <Initial Potential Energy>
291.98205

> <Initial RMS Gradient>
37.61365

> <Minimization Criteria>
STEEPD> Minimization exiting with gradient tolerance ( 3.0000000) satisfied.

> <CHARMm Energy>
117.07952

> <Potential Energy>
117.07952

> <RMS Gradient>
0.19481

> <Bond Energy>
6.6629

> <Angle Energy>
7.72009

> <STRBend>
-0.33345

> <Dihedral Energy>
8.44155

> <OOPLane>
0.20564

> <Van der Waals Energy>
52.21832

> <Electrostatic Energy>
42.16447

> <Hydrogen Bond Energy>
0

> <Solvation Free Energy>
0

> <HasGasteigerCharges>
true

> <REMARK99>
REMARK  99  MacroMolecule created from Mol2 file
REMARK  99  CHEMBL4870332
REMARK  99  PROTEIN
REMARK  99  GASTEIGER
REMARK  99
REMARK  99

$$$$
CHEMBL5203327
  SciTegic05292516403D

 52 53  0  0  0  0            999 V2000
    5.9206    0.3060   -0.7877 O   0  0
    4.9603   -0.1118   -0.1580 C   0  0
    4.7165   -1.3807    0.2189 O   0  0
    5.6373   -2.4495   -0.1235 C   0  0
    5.7368   -2.6301   -1.6420 C   0  0
    7.0119   -2.2246    0.5164 C   0  0
    5.0132   -3.7142    0.4847 C   0  0
    3.9848    0.7008    0.3117 N   0  0
    3.7688    2.0875   -0.1237 C   0  0  2  0  0  0
    4.8515    3.0949    0.3040 C   0  0
    6.1194    2.6405    0.3084 O   0  0
    4.6130    4.2756    0.5346 O   0  0
    2.4315    2.6338    0.4089 C   0  0
    1.0319    1.5507   -0.0185 S   0  0
   -0.2921    2.5082    0.7939 C   0  0
   -1.5999    1.7810    0.6503 C   0  0
   -1.9393    0.7603    1.5468 C   0  0
   -3.0876   -0.0030    1.3418 C   0  0
   -3.9226    0.2360    0.2403 C   0  0
   -3.5994    1.2871   -0.6298 C   0  0
   -2.4476    2.0496   -0.4312 C   0  0
   -5.0750   -0.6310   -0.0224 C   0  0
   -4.8888   -2.0097   -0.2212 C   0  0
   -5.9738   -2.8477   -0.4779 C   0  0
   -7.2599   -2.3162   -0.5407 C   0  0
   -7.4637   -0.9511   -0.3467 C   0  0
   -6.3766   -0.1130   -0.0911 C   0  0
    6.3027   -3.5317   -1.8995 H   0  0
    6.2345   -1.7820   -2.1219 H   0  0
    4.7402   -2.7041   -2.0908 H   0  0
    7.6583   -3.0995    0.3899 H   0  0
    6.9128   -2.0166    1.5874 H   0  0
    7.5320   -1.3679    0.0772 H   0  0
    5.6257   -4.6023    0.2956 H   0  0
    4.0117   -3.8906    0.0750 H   0  0
    4.8884   -3.6043    1.5684 H   0  0
    3.1991    0.2133    0.7307 H   0  0
    3.7663    2.0853   -1.2211 H   0  0
    6.2474    1.7545   -0.1048 H   0  0
    2.4715    2.7195    1.5011 H   0  0
    2.2304    3.6281   -0.0049 H   0  0
   -0.0547    2.6416    1.8549 H   0  0
   -0.3569    3.5036    0.3412 H   0  0
   -1.2919    0.5270    2.3889 H   0  0
   -3.3180   -0.8069    2.0378 H   0  0
   -4.2220    1.4914   -1.4980 H   0  0
   -2.1974    2.8281   -1.1485 H   0  0
   -3.8842   -2.4292   -0.1883 H   0  0
   -5.8196   -3.9126   -0.6311 H   0  0
   -8.1072   -2.9669   -0.7396 H   0  0
   -8.4706   -0.5414   -0.3936 H   0  0
   -6.5505    0.9488    0.0665 H   0  0
  2  1  2  0
  2  3  1  0
  3  4  1  0
  4  5  1  0
  4  6  1  0
  4  7  1  0
  5 28  1  0
  5 29  1  0
  5 30  1  0
  6 31  1  0
  6 32  1  0
  6 33  1  0
  7 34  1  0
  7 35  1  0
  7 36  1  0
  8  2  1  0
  8 37  1  0
  9  8  1  0
  9 10  1  0
  9 38  1  0
 10 11  1  0
 10 12  2  0
 11 39  1  0
 13  9  1  0
 13 40  1  0
 13 41  1  0
 14 13  1  0
 15 14  1  0
 15 42  1  0
 15 43  1  0
 16 15  1  0
 16 21  2  0
 17 16  1  0
 17 44  1  0
 18 17  2  0
 18 45  1  0
 19 18  1  0
 20 19  2  0
 20 46  1  0
 21 20  1  0
 21 47  1  0
 22 19  1  0
 22 27  1  0
 23 22  2  0
 23 48  1  0
 24 23  1  0
 24 49  1  0
 25 24  2  0
 25 50  1  0
 26 25  1  0
 26 51  1  0
 27 26  2  0
 27 52  1  0
M  END
> <Name>
CHEMBL5203327

> <Clean Energy>
8.69047

> <chembl_id>
CHEMBL5203327

> <chembl_pref_name>
None

> <efficacy>
0.21

> <Forcefield>
MMFF

> <ForcefieldBase>
MMFF

> <ForcefieldFFML>
<?xml version="1.0" encoding="UTF-8"?>
<!DOCTYPE ffml SYSTEM "Ffml.dtd">
<ffml version="1.0">
<forcefield name="MMFF" derivedFrom="MMFF" base="MMFF">
<atomTypes>
<atomType
name="O100"
element="O"
mass="16"
annotation=""/>
<atomType
name="C101"
element="C"
mass="12.011"
annotation=""/>
<atomType
name="N102"
element="N"
mass="14.007"
annotation=""/>
<atomType
name="S103"
element="S"
mass="32.066"
annotation=""/>
<atomType
name="H104"
element="H"
mass="1.008"
annotation=""/>
</atomTypes>
<parameters>
</parameters>
</forcefield>
</ffml>

> <Initial Potential Energy>
88.7285

> <Initial RMS Gradient>
26.0174

> <Minimization Criteria>
STEEPD> Minimization exiting with gradient tolerance ( 3.0000000) satisfied.

> <CHARMm Energy>
3.21753

> <Potential Energy>
3.21753

> <RMS Gradient>
0.13552

> <Bond Energy>
5.837

> <Angle Energy>
10.70458

> <STRBend>
-0.1439

> <Dihedral Energy>
11.46081

> <OOPLane>
0.63746

> <Van der Waals Energy>
51.17064

> <Electrostatic Energy>
-76.44906

> <Hydrogen Bond Energy>
0

> <Solvation Free Energy>
0

> <HasGasteigerCharges>
true

> <REMARK99>
REMARK  99  MacroMolecule created from Mol2 file
REMARK  99  CHEMBL5203327
REMARK  99  PROTEIN
REMARK  99  GASTEIGER
REMARK  99
REMARK  99

$$$$
CHEMBL482659
  SciTegic05292516403D

 69 72  0  0  0  0            999 V2000
   17.9785  -12.4292    0.1821 C   0  0
   18.4444  -12.5213    1.4978 C   0  0
   19.8053  -12.6908    1.7507 C   0  0
   20.6946  -12.7741    0.6832 C   0  0
   20.2296  -12.7103   -0.6323 C   0  0
   18.8590  -12.5653   -0.9013 C   0  0
   16.6259  -12.2755    0.0272 O   0  0
   16.2861  -10.9894   -0.5056 C   0  0
   14.9870  -10.5240    0.1141 C   0  0
   14.9963   -9.5928    1.1596 C   0  0
   13.7955   -9.1648    1.7343 C   0  0
   12.5589   -9.6632    1.2929 C   0  0
   12.5588  -10.6287    0.2763 C   0  0
   13.7592  -11.0420   -0.3220 C   0  0
   11.1098   -9.1647    2.2095 S   0  0
   10.1111   -8.2293    1.0463 C   0  0
    8.1346   -6.8217   -0.3665 C   0  0
    8.0340   -8.2033   -0.2256 C   0  0
    9.0075   -8.8958    0.4920 C   0  0
    7.1361   -6.1174   -1.0007 O   0  0
    5.9162   -6.1877   -0.2404 C   0  0
    5.0128   -5.0310   -0.6059 C   0  0
    5.4347   -4.3043   -1.6706 O   0  0
    3.9767   -4.7681   -0.0104 O   0  0
   11.4004  -11.2084   -0.1795 O   0  0
   11.0319  -12.3233    0.6449 C   0  0
   10.8553  -13.5248   -0.1886 C   0  0
    9.3633   -4.6368   -0.1188 C   0  0
    9.2531   -6.1265    0.1274 C   0  0
   10.2629   -6.8374    0.8306 C   0  0
   11.4412   -6.0897    1.4227 C   0  0
   11.6662   -4.7018    0.8299 C   0  0
   10.3602   -3.9302    0.7924 C   0  0
   10.6856  -14.5140   -0.8497 C   0  0
   10.4730  -15.7403   -1.6367 C   0  0
    9.1435  -16.3903   -1.2937 C   0  0
   22.3774  -12.9676    0.9867 Cl  0  0
   18.3917  -12.5391   -2.3274 C   0  0
   17.7414  -12.4545    2.3245 H   0  0
   20.1660  -12.7567    2.7740 H   0  0
   20.9390  -12.7888   -1.4529 H   0  0
   17.0700  -10.2408   -0.3252 H   0  0
   16.1473  -11.0714   -1.5898 H   0  0
   15.9442   -9.2126    1.5430 H   0  0
   13.8206   -8.4377    2.5439 H   0  0
   13.7356  -11.7919   -1.1113 H   0  0
    7.1906   -8.7467   -0.6422 H   0  0
    8.8809   -9.9650    0.6443 H   0  0
    5.3881   -7.1152   -0.4844 H   0  0
    6.1196   -6.1157    0.8353 H   0  0
    6.2850   -4.6816   -1.9917 H   0  0
   11.7643  -12.5343    1.4359 H   0  0
   10.0829  -12.0776    1.1336 H   0  0
    9.6604   -4.4916   -1.1651 H   0  0
    8.3868   -4.1573    0.0177 H   0  0
   11.2783   -5.9954    2.5037 H   0  0
   12.3638   -6.6560    1.2659 H   0  0
   12.4087   -4.1632    1.4293 H   0  0
   12.0739   -4.7883   -0.1854 H   0  0
   10.5329   -2.9104    0.4303 H   0  0
    9.9489   -3.8467    1.8065 H   0  0
   10.4966  -15.5015   -2.7056 H   0  0
   11.2870  -16.4485   -1.4443 H   0  0
    8.9981  -17.2960   -1.8907 H   0  0
    8.3064  -15.7134   -1.4972 H   0  0
    9.1029  -16.6676   -0.2346 H   0  0
   17.4229  -13.0376   -2.4329 H   0  0
   19.0933  -13.0709   -2.9796 H   0  0
   18.3121  -11.5061   -2.6792 H   0  0
  1  2  2  0
  1  7  1  0
  2  3  1  0
  2 39  1  0
  3  4  2  0
  3 40  1  0
  4  5  1  0
  4 37  1  0
  5  6  2  0
  5 41  1  0
  6  1  1  0
  6 38  1  0
  7  8  1  0
  8  9  1  0
  8 42  1  0
  8 43  1  0
  9 10  2  0
 10 11  1  0
 10 44  1  0
 11 12  2  0
 11 45  1  0
 12 13  1  0
 12 15  1  0
 13 14  2  0
 13 25  1  0
 14  9  1  0
 14 46  1  0
 15 16  1  0
 16 30  2  0
 17 18  1  0
 17 20  1  0
 18 19  2  0
 18 47  1  0
 19 16  1  0
 19 48  1  0
 20 21  1  0
 21 22  1  0
 21 49  1  0
 21 50  1  0
 22 23  1  0
 22 24  2  0
 23 51  1  0
 25 26  1  0
 26 27  1  0
 26 52  1  0
 26 53  1  0
 27 34  3  0
 28 29  1  0
 28 33  1  0
 28 54  1  0
 28 55  1  0
 29 17  2  0
 29 30  1  0
 30 31  1  0
 31 32  1  0
 31 56  1  0
 31 57  1  0
 32 33  1  0
 32 58  1  0
 32 59  1  0
 33 60  1  0
 33 61  1  0
 34 35  1  0
 35 36  1  0
 35 62  1  0
 35 63  1  0
 36 64  1  0
 36 65  1  0
 36 66  1  0
 38 67  1  0
 38 68  1  0
 38 69  1  0
M  END
> <Name>
CHEMBL482659

> <Clean Energy>
116.939003

> <chembl_id>
CHEMBL482659

> <chembl_pref_name>
None

> <efficacy>
0.38

> <Forcefield>
MMFF

> <ForcefieldBase>
MMFF

> <ForcefieldFFML>
<?xml version="1.0" encoding="UTF-8"?>
<!DOCTYPE ffml SYSTEM "Ffml.dtd">
<ffml version="1.0">
<forcefield name="MMFF" derivedFrom="MMFF" base="MMFF">
<atomTypes>
<atomType
name="C100"
element="C"
mass="12.011"
annotation=""/>
<atomType
name="O101"
element="O"
mass="16"
annotation=""/>
<atomType
name="S102"
element="S"
mass="32.066"
annotation=""/>
<atomType
name="Cl103"
element="Cl"
mass="35.453"
annotation=""/>
<atomType
name="H104"
element="H"
mass="1.008"
annotation=""/>
</atomTypes>
<parameters>
</parameters>
</forcefield>
</ffml>

> <Initial Potential Energy>
404.75658

> <Initial RMS Gradient>
34.32918

> <Minimization Criteria>
STEEPD> Minimization exiting with gradient tolerance ( 3.0000000) satisfied.

> <CHARMm Energy>
88.53539

> <Potential Energy>
88.53539

> <RMS Gradient>
0.08541

> <Bond Energy>
7.82234

> <Angle Energy>
13.15493

> <STRBend>
0.87161

> <Dihedral Energy>
19.01799

> <OOPLane>
0.27634

> <Van der Waals Energy>
70.11494

> <Electrostatic Energy>
-22.72275

> <Hydrogen Bond Energy>
0

> <Solvation Free Energy>
0

> <HasGasteigerCharges>
true

> <REMARK99>
REMARK  99  MacroMolecule created from Mol2 file
REMARK  99  CHEMBL482659
REMARK  99  PROTEIN
REMARK  99  GASTEIGER
REMARK  99
REMARK  99

$$$$
CHEMBL5194126
  SciTegic05292516403D

 56 57  0  0  0  0            999 V2000
   -2.9509   -2.0962    0.9191 O   0  0
   -2.9946   -0.9061    0.6308 C   0  0
   -1.7662   -0.1182    0.3771 C   0  0
   -0.5819   -0.5069    1.0023 C   0  0
    0.5786    0.2349    0.7959 C   0  0
    0.5661    1.3600   -0.0430 C   0  0
    1.8225    2.1459   -0.2825 C   0  0
    2.7714    1.4511   -1.6756 S   0  0
    4.2871    2.4596   -1.5004 C   0  0
    5.2488    1.8896   -0.4399 C   0  0  1  0  0  0
    5.6709    0.5309   -0.8165 N   0  0
    6.3830   -0.3108   -0.0299 C   0  0
    6.9633    0.0636    0.9783 O   0  0
    6.3682   -1.5499   -0.5554 O   0  0
    7.1331   -2.6255    0.0540 C   0  0
    8.6343   -2.3178    0.0348 C   0  0
    6.6288   -2.9300    1.4687 C   0  0
    6.8687   -3.8478   -0.8375 C   0  0
    6.3652    2.9307   -0.2361 C   0  0
    7.5053    2.4787    0.3235 O   0  0
    6.2178    4.1304   -0.4461 O   0  0
   -0.6203    1.7246   -0.6893 C   0  0
   -1.7834    0.9899   -0.4808 C   0  0
   -4.3036   -0.2382    0.5186 C   0  0
   -5.2175   -0.7146   -0.4239 C   0  0
   -6.4064   -0.0188   -0.6292 C   0  0
   -6.6769    1.1273    0.1351 C   0  0
   -5.7802    1.5773    1.1140 C   0  0
   -4.5821    0.8919    1.3011 C   0  0
   -7.9085    1.8756   -0.1024 N   0  3
   -8.5253    1.6507   -1.1532 O   0  0
   -8.2758    2.6806    0.7668 O   0  5
   -0.5619   -1.3806    1.6502 H   0  0
    1.4953   -0.0760    1.2887 H   0  0
    1.5796    3.1922   -0.4991 H   0  0
    2.4326    2.1388    0.6268 H   0  0
    4.7813    2.4722   -2.4791 H   0  0
    3.9885    3.4901   -1.2808 H   0  0
    4.7486    1.8063    0.5329 H   0  0
    5.1515    0.0698   -1.5572 H   0  0
    9.2233   -3.1873    0.3459 H   0  0
    8.8904   -1.4916    0.7050 H   0  0
    8.9571   -2.0191   -0.9690 H   0  0
    7.0904   -3.8389    1.8692 H   0  0
    5.5407   -3.0600    1.4739 H   0  0
    6.8504   -2.1158    2.1653 H   0  0
    7.3980   -4.7363   -0.4774 H   0  0
    7.1822   -3.6525   -1.8697 H   0  0
    5.7971   -4.0759   -0.8783 H   0  0
    7.4657    1.5464    0.6443 H   0  0
   -0.6400    2.5758   -1.3672 H   0  0
   -2.6853    1.2885   -1.0091 H   0  0
   -4.9935   -1.6046   -1.0094 H   0  0
   -7.1102   -0.3770   -1.3786 H   0  0
   -6.0073    2.4522    1.7220 H   0  0
   -3.8654    1.2418    2.0421 H   0  0
  2  1  2  0
  2  3  1  0
  3  4  1  0
  4  5  2  0
  4 33  1  0
  5  6  1  0
  5 34  1  0
  6  7  1  0
  6 22  2  0
  7  8  1  0
  7 35  1  0
  7 36  1  0
  8  9  1  0
  9 10  1  0
  9 37  1  0
  9 38  1  0
 10 11  1  0
 10 19  1  0
 10 39  1  0
 11 12  1  0
 11 40  1  0
 12 13  2  0
 12 14  1  0
 14 15  1  0
 15 16  1  0
 15 17  1  0
 15 18  1  0
 16 41  1  0
 16 42  1  0
 16 43  1  0
 17 44  1  0
 17 45  1  0
 17 46  1  0
 18 47  1  0
 18 48  1  0
 18 49  1  0
 19 20  1  0
 19 21  2  0
 20 50  1  0
 22 23  1  0
 22 51  1  0
 23  3  2  0
 23 52  1  0
 24  2  1  0
 24 29  2  0
 25 24  1  0
 25 53  1  0
 26 25  2  0
 26 54  1  0
 27 26  1  0
 28 27  2  0
 28 55  1  0
 29 28  1  0
 29 56  1  0
 30 27  1  0
 30 31  2  0
 30 32  1  0
M  CHG  2  30   1  32  -1
M  END
> <Name>
CHEMBL5194126

> <Clean Energy>
17.119301

> <chembl_id>
CHEMBL5194126

> <chembl_pref_name>
None

> <efficacy>
0.14

> <Forcefield>
MMFF

> <ForcefieldBase>
MMFF

> <ForcefieldFFML>
<?xml version="1.0" encoding="UTF-8"?>
<!DOCTYPE ffml SYSTEM "Ffml.dtd">
<ffml version="1.0">
<forcefield name="MMFF" derivedFrom="MMFF" base="MMFF">
<atomTypes>
<atomType
name="O100"
element="O"
mass="16"
annotation=""/>
<atomType
name="C101"
element="C"
mass="12.011"
annotation=""/>
<atomType
name="S102"
element="S"
mass="32.066"
annotation=""/>
<atomType
name="N103"
element="N"
mass="14.007"
annotation=""/>
<atomType
name="H104"
element="H"
mass="1.008"
annotation=""/>
</atomTypes>
<parameters>
</parameters>
</forcefield>
</ffml>

> <Initial Potential Energy>
211.41158

> <Initial RMS Gradient>
36.85108

> <Minimization Criteria>
CONJUG> Minimization exiting with gradient tolerance ( 0.0100000) satisfied.

> <CHARMm Energy>
62.94577

> <Potential Energy>
62.94577

> <RMS Gradient>
0.00885

> <Bond Energy>
6.18171

> <Angle Energy>
15.95495

> <STRBend>
1.4544

> <Dihedral Energy>
14.2299

> <OOPLane>
0.66809

> <Van der Waals Energy>
60.6821

> <Electrostatic Energy>
-36.22538

> <Hydrogen Bond Energy>
0

> <Solvation Free Energy>
0

> <HasGasteigerCharges>
true

> <REMARK99>
REMARK  99  MacroMolecule created from Mol2 file
REMARK  99  CHEMBL5194126
REMARK  99  PROTEIN
REMARK  99  GASTEIGER
REMARK  99
REMARK  99

$$$$
CHEMBL2424949
  SciTegic05292516403D

 56 59  0  0  0  0            999 V2000
    5.9384  -25.7426   -1.0718 S   0  0
    6.7825  -26.4623   -2.0000 O   0  0
    5.0848  -24.6470   -1.4842 O   0  0
    8.7758  -23.7525   -0.5442 C   0  0
    8.3008  -24.9719   -0.0734 C   0  0
    9.2173  -26.0129    0.0728 C   0  0
   10.5565  -25.9006   -0.1541 N   0  0
   10.9975  -24.6972   -0.5935 C   0  0
   10.1431  -23.6088   -0.8058 C   0  0
   12.3457  -24.5157   -0.8408 O   0  0
   13.2118  -25.6484   -0.6552 C   0  0
   14.3434  -25.5160   -1.6761 C   0  0
   15.3918  -26.6079   -1.4955 C   0  0
   15.9127  -26.6087   -0.1202 N   0  0
   14.8780  -26.7040    0.9294 C   0  0
   13.8110  -25.6245    0.7513 C   0  0
   17.1862  -27.1075    0.1579 C   0  0
   17.8605  -27.9959   -0.6973 C   0  0
   19.1361  -28.4864   -0.3957 C   0  0
   19.7752  -28.0878    0.7727 C   0  0
   19.1457  -27.1945    1.6312 C   0  0
   17.8695  -26.7131    1.3217 C   0  0
   10.7170  -22.0837   -1.3727 Cl  0  0
    6.8996  -25.1544    0.2161 N   0  0
    4.9018  -26.9192   -0.2326 C   0  0
    3.9236  -26.4513    0.6457 C   0  0
    3.0584  -27.3627    1.2550 C   0  0
    3.1390  -28.7311    0.9744 C   0  0
    4.1257  -29.1908    0.0984 C   0  0
    5.0099  -28.2861   -0.5065 C   0  0
    2.2040  -29.4988    1.6145 O   0  0
    2.0590  -30.8500    1.1862 C   0  0
    8.1043  -22.9154   -0.7072 H   0  0
    8.8946  -26.9947    0.4088 H   0  0
   12.6962  -26.5979   -0.8472 H   0  0
   13.9321  -25.5539   -2.6922 H   0  0
   14.8126  -24.5273   -1.5808 H   0  0
   14.9643  -27.5900   -1.7324 H   0  0
   16.1963  -26.4093   -2.2143 H   0  0
   14.4151  -27.6980    0.8825 H   0  0
   15.2954  -26.5983    1.9362 H   0  0
   14.2463  -24.6356    0.9477 H   0  0
   13.0196  -25.7558    1.4985 H   0  0
   17.3804  -28.3458   -1.6068 H   0  0
   19.6294  -29.1787   -1.0736 H   0  0
   20.7654  -28.4661    1.0092 H   0  0
   19.6495  -26.8623    2.5353 H   0  0
   17.4087  -25.9928    1.9929 H   0  0
    6.4526  -24.2825    0.5160 H   0  0
    3.7972  -25.3893    0.8420 H   0  0
    2.2907  -26.9993    1.9346 H   0  0
    4.2159  -30.2455   -0.1427 H   0  0
    5.7684  -28.6537   -1.1960 H   0  0
    1.2075  -31.2815    1.7207 H   0  0
    2.9481  -31.4352    1.4415 H   0  0
    1.8466  -30.9041    0.1134 H   0  0
  1  3  2  0
  1 25  1  0
  2  1  2  0
  4  5  2  0
  4 33  1  0
  5  6  1  0
  5 24  1  0
  6  7  2  0
  6 34  1  0
  7  8  1  0
  8  9  2  0
  8 10  1  0
  9  4  1  0
  9 23  1  0
 10 11  1  0
 11 12  1  0
 11 16  1  0
 11 35  1  0
 12 13  1  0
 12 36  1  0
 12 37  1  0
 13 14  1  0
 13 38  1  0
 13 39  1  0
 14 15  1  0
 14 17  1  0
 15 16  1  0
 15 40  1  0
 15 41  1  0
 16 42  1  0
 16 43  1  0
 17 18  2  0
 18 19  1  0
 18 44  1  0
 19 20  2  0
 19 45  1  0
 20 21  1  0
 20 46  1  0
 21 22  2  0
 21 47  1  0
 22 17  1  0
 22 48  1  0
 24  1  1  0
 24 49  1  0
 25 26  2  0
 26 27  1  0
 26 50  1  0
 27 28  2  0
 27 51  1  0
 28 29  1  0
 28 31  1  0
 29 30  2  0
 29 52  1  0
 30 25  1  0
 30 53  1  0
 31 32  1  0
 32 54  1  0
 32 55  1  0
 32 56  1  0
M  END
> <Name>
CHEMBL2424949

> <Clean Energy>
10.6022

> <chembl_id>
CHEMBL2424949

> <chembl_pref_name>
None

> <efficacy>
0.15

> <Forcefield>
MMFF

> <ForcefieldBase>
MMFF

> <ForcefieldFFML>
<?xml version="1.0" encoding="UTF-8"?>
<!DOCTYPE ffml SYSTEM "Ffml.dtd">
<ffml version="1.0">
<forcefield name="MMFF" derivedFrom="MMFF" base="MMFF">
<atomTypes>
<atomType
name="S100"
element="S"
mass="32.066"
annotation=""/>
<atomType
name="O101"
element="O"
mass="16"
annotation=""/>
<atomType
name="C102"
element="C"
mass="12.011"
annotation=""/>
<atomType
name="N103"
element="N"
mass="14.007"
annotation=""/>
<atomType
name="Cl104"
element="Cl"
mass="35.453"
annotation=""/>
<atomType
name="H105"
element="H"
mass="1.008"
annotation=""/>
</atomTypes>
<parameters>
</parameters>
</forcefield>
</ffml>

> <Initial Potential Energy>
111.58218

> <Initial RMS Gradient>
31.95525

> <Minimization Criteria>
CONJUG> Minimization exiting with gradient tolerance ( 0.0100000) satisfied.

> <CHARMm Energy>
19.96977

> <Potential Energy>
19.96977

> <RMS Gradient>
0.00913

> <Bond Energy>
5.48693

> <Angle Energy>
24.55054

> <STRBend>
1.46697

> <Dihedral Energy>
10.06136

> <OOPLane>
1.28991

> <Van der Waals Energy>
64.77356

> <Electrostatic Energy>
-87.65949

> <Hydrogen Bond Energy>
0

> <Solvation Free Energy>
0

> <HasGasteigerCharges>
true

> <REMARK99>
REMARK  99  MacroMolecule created from Mol2 file
REMARK  99  CHEMBL2424949
REMARK  99  PROTEIN
REMARK  99  GASTEIGER
REMARK  99
REMARK  99

$$$$
CHEMBL4551334
  SciTegic05292516403D

 51 54  0  0  0  0            999 V2000
   29.0735   -2.5607    0.9702 C   0  0
   29.1103   -3.3586   -0.1739 C   0  0
   30.3099   -3.5750   -0.8665 C   0  0
   30.2413   -1.9508    1.4467 C   0  0
   31.4518   -2.1351    0.7552 C   0  0
   31.4666   -2.9436   -0.3803 C   0  0
   32.7851   -2.9291   -0.7894 N   0  0
   33.4872   -2.0774    0.0428 C   0  0
   32.7083   -1.6370    1.0079 N   0  0
   33.3457   -3.7086   -1.8882 C   0  0
   34.3857   -4.6985   -1.4141 C   0  0
   34.1546   -5.5147   -0.2985 C   0  0
   35.1495   -6.3740    0.1701 C   0  0
   36.3928   -6.4642   -0.4754 C   0  0
   36.5977   -5.6882   -1.6254 C   0  0
   35.6085   -4.8145   -2.0888 C   0  0
   37.4349   -7.3647    0.0451 C   0  0
   37.1265   -8.7385    0.1550 C   0  0
   38.0604   -9.6652    0.6199 C   0  0
   39.3348   -9.2449    0.9739 C   0  0
   39.6734   -7.8983    0.8687 C   0  0
   38.7319   -6.9517    0.4246 C   0  0
   39.2158   -5.5445    0.4040 C   0  0
   38.3753   -4.5722    0.8648 N   0  0
   40.3574   -5.2757    0.0443 O   0  0
   34.9422   -1.7552   -0.1139 C   0  0
   35.3179   -0.4294    0.5515 C   0  0
   36.7946   -0.1155    0.3684 C   0  0
   30.1638   -0.8804    3.0038 Br  0  0
   28.1281   -2.4140    1.4891 H   0  0
   28.1902   -3.8227   -0.5298 H   0  0
   30.3293   -4.2052   -1.7493 H   0  0
   32.5414   -4.2470   -2.3983 H   0  0
   33.7660   -2.9860   -2.5971 H   0  0
   33.2093   -5.4685    0.2411 H   0  0
   34.9479   -6.9685    1.0604 H   0  0
   37.5427   -5.7496   -2.1648 H   0  0
   35.8150   -4.2136   -2.9724 H   0  0
   36.1418   -9.1014   -0.1392 H   0  0
   37.7880  -10.7143    0.6956 H   0  0
   40.0672   -9.9601    1.3337 H   0  0
   40.6781   -7.5792    1.1456 H   0  0
   37.4419   -4.7514    1.2075 H   0  0
   38.7392   -3.6292    0.8953 H   0  0
   35.5340   -2.5634    0.3317 H   0  0
   35.2008   -1.6986   -1.1774 H   0  0
   34.7195    0.3868    0.1283 H   0  0
   35.0923   -0.4665    1.6242 H   0  0
   37.0432    0.8327    0.8549 H   0  0
   37.0484   -0.0297   -0.6926 H   0  0
   37.4194   -0.8986    0.8093 H   0  0
  1  2  2  0
  1 30  1  0
  2  3  1  0
  2 31  1  0
  3  6  2  0
  3 32  1  0
  4  1  1  0
  4 29  1  0
  5  4  2  0
  5  6  1  0
  6  7  1  0
  7  8  1  0
  7 10  1  0
  8  9  2  0
  8 26  1  0
  9  5  1  0
 10 11  1  0
 10 33  1  0
 10 34  1  0
 11 12  2  0
 12 13  1  0
 12 35  1  0
 13 14  2  0
 13 36  1  0
 14 15  1  0
 14 17  1  0
 15 16  2  0
 15 37  1  0
 16 11  1  0
 16 38  1  0
 17 18  2  0
 18 19  1  0
 18 39  1  0
 19 20  2  0
 19 40  1  0
 20 21  1  0
 20 41  1  0
 21 22  2  0
 21 42  1  0
 22 17  1  0
 22 23  1  0
 23 24  1  0
 23 25  2  0
 24 43  1  0
 24 44  1  0
 26 27  1  0
 26 45  1  0
 26 46  1  0
 27 28  1  0
 27 47  1  0
 27 48  1  0
 28 49  1  0
 28 50  1  0
 28 51  1  0
M  END
> <Name>
CHEMBL4551334

> <Clean Energy>
46.6367

> <chembl_id>
CHEMBL4551334

> <chembl_pref_name>
None

> <efficacy>
0.197530864

> <Forcefield>
MMFF

> <ForcefieldBase>
MMFF

> <ForcefieldFFML>
<?xml version="1.0" encoding="UTF-8"?>
<!DOCTYPE ffml SYSTEM "Ffml.dtd">
<ffml version="1.0">
<forcefield name="MMFF" derivedFrom="MMFF" base="MMFF">
<atomTypes>
<atomType
name="C100"
element="C"
mass="12.011"
annotation=""/>
<atomType
name="N101"
element="N"
mass="14.007"
annotation=""/>
<atomType
name="O102"
element="O"
mass="16"
annotation=""/>
<atomType
name="Br103"
element="Br"
mass="79.904"
annotation=""/>
<atomType
name="H104"
element="H"
mass="1.008"
annotation=""/>
</atomTypes>
<parameters>
</parameters>
</forcefield>
</ffml>

> <Initial Potential Energy>
241.47092

> <Initial RMS Gradient>
38.07326

> <Minimization Criteria>
STEEPD> Minimization exiting with gradient tolerance ( 3.0000000) satisfied.

> <CHARMm Energy>
71.81389

> <Potential Energy>
71.81389

> <RMS Gradient>
0.14158

> <Bond Energy>
7.11052

> <Angle Energy>
7.8726

> <STRBend>
-0.12813

> <Dihedral Energy>
6.11756

> <OOPLane>
0.09882

> <Van der Waals Energy>
54.2943

> <Electrostatic Energy>
-3.55179

> <Hydrogen Bond Energy>
0

> <Solvation Free Energy>
0

> <HasGasteigerCharges>
true

> <REMARK99>
REMARK  99  MacroMolecule created from Mol2 file
REMARK  99  CHEMBL4551334
REMARK  99  PROTEIN
REMARK  99  GASTEIGER
REMARK  99
REMARK  99

$$$$
CHEMBL366157
  SciTegic05292516403D

 34 35  0  0  0  0            999 V2000
    7.9630   -1.4164    0.0683 C   0  0
    5.8737   -2.1425   -0.7777 O   0  0
    7.1334   -2.6561   -0.2888 C   0  0  1  0  0  0
    4.7407   -2.8042   -0.3910 C   0  0
    2.3443   -2.5803    0.0007 C   0  0
    3.5770   -2.0309   -0.3860 C   0  0
    9.0537   -1.4475    0.6181 O   0  0
    2.2828   -3.9412    0.3739 C   0  0
    3.4515   -4.7151    0.3352 C   0  0
    7.3757   -0.2475   -0.2941 O   0  0
    4.6714   -4.1523   -0.0507 C   0  0
    7.8094   -3.4533   -1.4126 C   0  0
    1.1730   -1.8064    0.0281 C   0  0
    1.0547   -4.4906    0.7719 C   0  0
    8.5686   -4.6985   -0.9418 C   0  0
    9.7538   -4.4100   -0.0375 C   0  0
   -0.0412   -2.3668    0.4257 C   0  0
   -0.0985   -3.7058    0.8005 C   0  0
    7.0007   -3.2181    0.6433 H   0  0
    3.6340   -0.9842   -0.6757 H   0  0
    3.4201   -5.7690    0.6039 H   0  0
    6.5028   -0.4405   -0.7022 H   0  0
    5.5405   -4.7997   -0.0856 H   0  0
    7.0521   -3.7861   -2.1342 H   0  0
    8.4956   -2.8105   -1.9788 H   0  0
    1.1987   -0.7575   -0.2588 H   0  0
    0.9866   -5.5355    1.0660 H   0  0
    7.8821   -5.3817   -0.4293 H   0  0
    8.9326   -5.2317   -1.8286 H   0  0
   10.3168   -5.3304    0.1482 H   0  0
    9.4286   -4.0248    0.9330 H   0  0
   10.4339   -3.6861   -0.4969 H   0  0
   -0.9410   -1.7572    0.4441 H   0  0
   -1.0410   -4.1422    1.1161 H   0  0
  2  3  1  0
  3  1  1  0
  3 12  1  0
  3 19  1  0
  4  2  1  0
  5  6  1  0
  6  4  2  0
  6 20  1  0
  7  1  2  0
  8  5  1  0
  8  9  1  0
  9 11  2  0
  9 21  1  0
 10  1  1  0
 10 22  1  0
 11  4  1  0
 11 23  1  0
 12 24  1  0
 12 25  1  0
 13  5  2  0
 13 26  1  0
 14  8  2  0
 14 27  1  0
 15 12  1  0
 15 28  1  0
 15 29  1  0
 16 15  1  0
 16 30  1  0
 16 31  1  0
 16 32  1  0
 17 13  1  0
 17 33  1  0
 18 14  1  0
 18 17  2  0
 18 34  1  0
M  END
> <Name>
CHEMBL366157

> <Clean Energy>
20.493299

> <chembl_id>
CHEMBL366157

> <chembl_pref_name>
None

> <efficacy>
0.078

> <Forcefield>
MMFF

> <ForcefieldBase>
MMFF

> <ForcefieldFFML>
<?xml version="1.0" encoding="UTF-8"?>
<!DOCTYPE ffml SYSTEM "Ffml.dtd">
<ffml version="1.0">
<forcefield name="MMFF" derivedFrom="MMFF" base="MMFF">
<atomTypes>
<atomType
name="C100"
element="C"
mass="12.011"
annotation=""/>
<atomType
name="O101"
element="O"
mass="16"
annotation=""/>
<atomType
name="H102"
element="H"
mass="1.008"
annotation=""/>
</atomTypes>
<parameters>
</parameters>
</forcefield>
</ffml>

> <Initial Potential Energy>
94.77694

> <Initial RMS Gradient>
29.40567

> <Minimization Criteria>
STEEPD> Minimization exiting with gradient tolerance ( 3.0000000) satisfied.

> <CHARMm Energy>
42.31427

> <Potential Energy>
42.31427

> <RMS Gradient>
0.05382

> <Bond Energy>
4.11147

> <Angle Energy>
8.93959

> <STRBend>
0.12624

> <Dihedral Energy>
-2.87464

> <OOPLane>
0.00945

> <Van der Waals Energy>
39.01091

> <Electrostatic Energy>
-7.00875

> <Hydrogen Bond Energy>
0

> <Solvation Free Energy>
0

> <HasGasteigerCharges>
true

> <REMARK99>
REMARK  99  MacroMolecule created from Mol2 file
REMARK  99  CHEMBL366157
REMARK  99  PROTEIN
REMARK  99  GASTEIGER
REMARK  99
REMARK  99

$$$$
CHEMBL197684
  SciTegic05292516403D

 57 58  0  0  0  0            999 V2000
    8.2717    1.6425   -0.1716 C   0  0
    8.2850    0.5184    0.6484 C   0  0
    7.2320   -0.3112    0.8163 N   0  0
    7.0786    1.9174   -0.8473 C   0  0
   10.8638    4.1958    0.9134 C   0  0
   11.9661    4.6721    0.9276 C   0  0
    6.0944   -0.0367    0.1552 C   0  0
    5.9690    1.0798   -0.6958 C   0  0
   16.6685    3.7171   -0.3657 C   0  0
    9.4831    2.5321   -0.2912 C   0  0  2  0  0  0
   16.3524    2.6106   -0.7796 O   0  0
    9.4453    0.2792    1.3606 O   0  0
   17.9206    4.2564   -0.4220 O   0  0
    9.5404    3.5509    0.8610 C   0  0
    9.4462    3.2240   -1.5500 O   0  0
   13.3359    5.2003    0.9250 C   0  0
   15.7319    4.7061    0.2881 C   0  0
    4.9915   -0.8655    0.3107 C   0  0
    4.7600    1.3361   -1.3647 C   0  0
    9.5309   -1.0132    1.9661 C   0  0
   18.9034    3.4201   -1.0378 C   0  0
   14.2960    4.1880    0.3032 C   0  0
   10.0020   -2.0718    0.9660 C   0  0
   11.8300   -2.8011   -0.6216 C   0  0
   11.3613   -1.7202    0.3521 C   0  0
   13.1704   -2.4433   -1.2446 C   0  0
    3.6695    0.4906   -1.1879 C   0  0
    3.7852   -0.6114   -0.3481 C   0  0
    7.0264    2.7892   -1.4967 H   0  0
   10.3865    1.9097   -0.3172 H   0  0
    9.3506    3.0645    1.8250 H   0  0
    8.7705    4.3203    0.7240 H   0  0
   10.2803    3.7223   -1.6109 H   0  0
   13.3675    6.1398    0.3610 H   0  0
   13.6454    5.4273    1.9517 H   0  0
   16.0772    4.8814    1.3130 H   0  0
   15.7789    5.6460   -0.2732 H   0  0
    5.0693   -1.7316    0.9640 H   0  0
    4.6699    2.1959   -2.0244 H   0  0
   10.2761   -0.9289    2.7665 H   0  0
    8.5993   -1.3087    2.4632 H   0  0
   19.8470    3.9716   -1.0692 H   0  0
   18.6098    3.1736   -2.0627 H   0  0
   19.0503    2.5108   -0.4470 H   0  0
   13.9765    3.9542   -0.7214 H   0  0
   14.2523    3.2418    0.8591 H   0  0
   10.0653   -3.0396    1.4766 H   0  0
    9.2664   -2.1755    0.1599 H   0  0
   11.9205   -3.7602   -0.0987 H   0  0
   11.0876   -2.9332   -1.4172 H   0  0
   12.1034   -1.6000    1.1508 H   0  0
   11.2968   -0.7611   -0.1752 H   0  0
   13.4893   -3.2293   -1.9362 H   0  0
   13.9422   -2.3322   -0.4763 H   0  0
   13.1055   -1.5048   -1.8045 H   0  0
    2.7340    0.6907   -1.7033 H   0  0
    2.9398   -1.2771   -0.2009 H   0  0
  2  1  1  0
  3  2  2  0
  3  7  1  0
  4  1  2  0
  4 29  1  0
  5 14  1  0
  6  5  3  0
  7  8  1  0
  8  4  1  0
  9 17  1  0
 10  1  1  0
 10 30  1  0
 11  9  2  0
 12  2  1  0
 13  9  1  0
 14 10  1  0
 14 31  1  0
 14 32  1  0
 15 10  1  0
 15 33  1  0
 16  6  1  0
 16 34  1  0
 16 35  1  0
 17 22  1  0
 17 36  1  0
 17 37  1  0
 18  7  2  0
 18 38  1  0
 19  8  2  0
 19 39  1  0
 20 12  1  0
 20 40  1  0
 20 41  1  0
 21 13  1  0
 21 42  1  0
 21 43  1  0
 21 44  1  0
 22 16  1  0
 22 45  1  0
 22 46  1  0
 23 20  1  0
 23 47  1  0
 23 48  1  0
 24 25  1  0
 24 49  1  0
 24 50  1  0
 25 23  1  0
 25 51  1  0
 25 52  1  0
 26 24  1  0
 26 53  1  0
 26 54  1  0
 26 55  1  0
 27 19  1  0
 27 56  1  0
 28 18  1  0
 28 27  2  0
 28 57  1  0
M  END
> <Name>
CHEMBL197684

> <Clean Energy>
126.115997

> <chembl_id>
CHEMBL197684

> <chembl_pref_name>
None

> <efficacy>
0.42

> <Forcefield>
MMFF

> <ForcefieldBase>
MMFF

> <ForcefieldFFML>
<?xml version="1.0" encoding="UTF-8"?>
<!DOCTYPE ffml SYSTEM "Ffml.dtd">
<ffml version="1.0">
<forcefield name="MMFF" derivedFrom="MMFF" base="MMFF">
<atomTypes>
<atomType
name="C100"
element="C"
mass="12.011"
annotation=""/>
<atomType
name="N101"
element="N"
mass="14.007"
annotation=""/>
<atomType
name="O102"
element="O"
mass="16"
annotation=""/>
<atomType
name="H103"
element="H"
mass="1.008"
annotation=""/>
</atomTypes>
<parameters>
</parameters>
</forcefield>
</ffml>

> <Initial Potential Energy>
293.26892

> <Initial RMS Gradient>
29.82942

> <Minimization Criteria>
STEEPD> Minimization exiting with gradient tolerance ( 3.0000000) satisfied.

> <CHARMm Energy>
17.91201

> <Potential Energy>
17.91201

> <RMS Gradient>
0.19257

> <Bond Energy>
3.83594

> <Angle Energy>
8.75053

> <STRBend>
0.85954

> <Dihedral Energy>
-10.65801

> <OOPLane>
0.01272

> <Van der Waals Energy>
49.63304

> <Electrostatic Energy>
-34.52175

> <Hydrogen Bond Energy>
0

> <Solvation Free Energy>
0

> <HasGasteigerCharges>
true

> <REMARK99>
REMARK  99  MacroMolecule created from Mol2 file
REMARK  99  CHEMBL197684
REMARK  99  PROTEIN
REMARK  99  GASTEIGER
REMARK  99
REMARK  99

$$$$
CHEMBL2204693
  SciTegic05292516403D

 56 58  0  0  0  0            999 V2000
   18.0214   -2.8986    0.0666 C   0  0
   16.9819   -3.9557   -0.3874 C   0  0
   19.0791   -2.6634   -0.5047 O   0  0
   17.6614   -2.2351    1.1961 O   0  0
   15.8984   -3.8090    0.5544 O   0  0
   14.7454   -4.5327    0.5411 C   0  0
   13.8521   -4.1849    1.5609 C   0  0
   12.6168   -4.8280    1.6958 C   0  0
   12.2482   -5.8419    0.8077 C   0  0
   13.1383   -6.1862   -0.2156 C   0  0
   14.3784   -5.5404   -0.3432 C   0  0
   10.9089   -6.5271    0.9348 C   0  0
    9.7832   -5.7101    0.3012 C   0  0
    8.5504   -6.4222    0.4516 O   0  0
    7.4217   -5.7357    0.0993 C   0  0
    7.3884   -4.5226   -0.5899 C   0  0
    6.1624   -3.9081   -0.8598 C   0  0
    4.9616   -4.4919   -0.4365 C   0  0
    4.9984   -5.7303    0.2120 C   0  0
    6.2253   -6.3442    0.4795 C   0  0
    3.7039   -3.7901   -0.7102 C   0  0
    2.7152   -3.6912    0.1920 C   0  0
    1.4781   -2.9432   -0.0498 C   0  0
    1.4897   -1.6669   -0.6263 C   0  0
    0.2978   -0.9627   -0.8084 C   0  0
   -0.9134   -1.5236   -0.4064 C   0  0
   -0.9310   -2.7867    0.1823 C   0  0
    0.2600   -3.4907    0.3663 C   0  0
   16.5834   -3.5728   -1.8146 C   0  0
   17.6829   -5.3105   -0.2693 C   0  0
   16.7822   -2.5637    1.4893 H   0  0
   14.1166   -3.4009    2.2676 H   0  0
   11.9496   -4.5310    2.5024 H   0  0
   12.8773   -6.9686   -0.9262 H   0  0
   15.0185   -5.8658   -1.1531 H   0  0
   10.9460   -7.5242    0.4772 H   0  0
   10.6862   -6.7123    1.9943 H   0  0
    9.7220   -4.7347    0.8006 H   0  0
    9.9965   -5.5635   -0.7651 H   0  0
    8.2967   -4.0295   -0.9265 H   0  0
    6.1394   -2.9572   -1.3892 H   0  0
    4.0796   -6.2271    0.5159 H   0  0
    6.2382   -7.3015    0.9961 H   0  0
    3.6263   -3.3151   -1.6845 H   0  0
    2.7958   -4.1620    1.1690 H   0  0
    2.4272   -1.2050   -0.9266 H   0  0
    0.3158    0.0263   -1.2580 H   0  0
   -1.8418   -0.9765   -0.5498 H   0  0
   -1.8711   -3.2270    0.5020 H   0  0
    0.2229   -4.4734    0.8299 H   0  0
   15.9070   -4.2958   -2.2740 H   0  0
   17.4595   -3.4943   -2.4684 H   0  0
   16.0668   -2.6059   -1.8252 H   0  0
   17.0702   -6.1371   -0.6337 H   0  0
   17.9206   -5.5321    0.7779 H   0  0
   18.6192   -5.3284   -0.8378 H   0  0
  1  2  1  0
  1  3  2  0
  1  4  1  0
  2  5  1  0
  2 29  1  0
  2 30  1  0
  4 31  1  0
  5  6  1  0
  6  7  1  0
  6 11  2  0
  7  8  2  0
  7 32  1  0
  8  9  1  0
  8 33  1  0
  9 10  2  0
  9 12  1  0
 10 11  1  0
 10 34  1  0
 11 35  1  0
 12 13  1  0
 12 36  1  0
 12 37  1  0
 13 14  1  0
 13 38  1  0
 13 39  1  0
 14 15  1  0
 15 16  1  0
 15 20  2  0
 16 17  2  0
 16 40  1  0
 17 18  1  0
 17 41  1  0
 18 19  2  0
 18 21  1  0
 19 20  1  0
 19 42  1  0
 20 43  1  0
 21 22  2  0
 21 44  1  0
 22 23  1  0
 22 45  1  0
 23 24  1  0
 23 28  2  0
 24 25  2  0
 24 46  1  0
 25 26  1  0
 25 47  1  0
 26 27  2  0
 26 48  1  0
 27 28  1  0
 27 49  1  0
 28 50  1  0
 29 51  1  0
 29 52  1  0
 29 53  1  0
 30 54  1  0
 30 55  1  0
 30 56  1  0
M  END
> <Name>
CHEMBL2204693

> <Clean Energy>
19.1052

> <chembl_id>
CHEMBL2204693

> <chembl_pref_name>
None

> <efficacy>
0.170940171

> <Forcefield>
MMFF

> <ForcefieldBase>
MMFF

> <ForcefieldFFML>
<?xml version="1.0" encoding="UTF-8"?>
<!DOCTYPE ffml SYSTEM "Ffml.dtd">
<ffml version="1.0">
<forcefield name="MMFF" derivedFrom="MMFF" base="MMFF">
<atomTypes>
<atomType
name="C100"
element="C"
mass="12.011"
annotation=""/>
<atomType
name="O101"
element="O"
mass="16"
annotation=""/>
<atomType
name="H102"
element="H"
mass="1.008"
annotation=""/>
</atomTypes>
<parameters>
</parameters>
</forcefield>
</ffml>

> <Initial Potential Energy>
162.8879

> <Initial RMS Gradient>
28.60073

> <Minimization Criteria>
STEEPD> Minimization exiting with gradient tolerance ( 3.0000000) satisfied.

> <CHARMm Energy>
87.25659

> <Potential Energy>
87.25659

> <RMS Gradient>
0.14126

> <Bond Energy>
6.159

> <Angle Energy>
22.63447

> <STRBend>
0.23742

> <Dihedral Energy>
6.96047

> <OOPLane>
0.02876

> <Van der Waals Energy>
67.50723

> <Electrostatic Energy>
-16.27076

> <Hydrogen Bond Energy>
0

> <Solvation Free Energy>
0

> <HasGasteigerCharges>
true

> <REMARK99>
REMARK  99  MacroMolecule created from Mol2 file
REMARK  99  CHEMBL2204693
REMARK  99  PROTEIN
REMARK  99  GASTEIGER
REMARK  99
REMARK  99

$$$$
CHEMBL370374
  SciTegic05292516403D

 48 48  0  0  0  0            999 V2000
    1.2819   -0.3142   -0.1312 C   0  0
    4.5878    1.6203    0.1060 C   0  0
    5.5843    2.1795   -0.2695 C   0  0
   10.3730    3.6795    0.6345 C   0  0
    1.2831   -1.6883   -0.4197 C   0  0
   11.2171    4.5720    0.3263 O   0  5
   10.4154    2.8340    1.5683 O   0  0
    2.3984    0.6158   -0.5769 C   0  0  2  0  0  0
    3.3576    0.9533    0.5834 C   0  0
    2.2736   -2.3006   -1.1428 O   0  0
    1.8071    1.8251   -1.0813 O   0  0
    0.1980    0.2030    0.6040 C   0  0
    6.7827    2.8942   -0.7529 C   0  0
    9.1426    3.6374   -0.2768 C   0  0
    0.2057   -2.5010   -0.0456 C   0  0
    3.4836   -2.4611   -0.3833 C   0  0
    7.9467    2.8338    0.2375 C   0  0
    4.0984   -3.8054   -0.7653 C   0  0
    6.0160   -5.4061   -0.4087 C   0  0
    5.4087   -4.0578   -0.0225 C   0  0
   -0.8659   -0.6132    0.9995 C   0  0
    7.3212   -5.6613    0.3281 C   0  0
   -0.8646   -1.9655    0.6688 C   0  0
    2.9387    0.1730   -1.4209 H   0  0
    3.6400    0.0454    1.1282 H   0  0
    2.8583    1.6171    1.3003 H   0  0
    2.5481    2.3854   -1.3740 H   0  0
    0.1808    1.2639    0.8516 H   0  0
    7.0938    2.4647   -1.7127 H   0  0
    6.5162    3.9406   -0.9449 H   0  0
    8.8270    4.6730   -0.4577 H   0  0
    9.4696    3.2273   -1.2406 H   0  0
    0.2075   -3.5540   -0.3132 H   0  0
    4.1752   -1.6550   -0.6475 H   0  0
    3.2957   -2.4349    0.6981 H   0  0
    8.2392    1.7891    0.4023 H   0  0
    7.6316    3.2270    1.2125 H   0  0
    3.3797   -4.6061   -0.5501 H   0  0
    4.2646   -3.8338   -1.8495 H   0  0
    5.3097   -6.2123   -0.1787 H   0  0
    6.2014   -5.4355   -1.4888 H   0  0
    5.2286   -4.0324    1.0592 H   0  0
    6.1205   -3.2550   -0.2502 H   0  0
   -1.6976   -0.1864    1.5535 H   0  0
    7.7375   -6.6308    0.0369 H   0  0
    7.1650   -5.6704    1.4116 H   0  0
    8.0614   -4.8897    0.0938 H   0  0
   -1.6971   -2.6002    0.9606 H   0  0
  2  9  1  0
  3  2  3  0
  4 14  1  0
  5  1  1  0
  6  4  1  0
  7  4  2  0
  8  1  1  0
  8 24  1  0
  9  8  1  0
  9 25  1  0
  9 26  1  0
 10  5  1  0
 11  8  1  0
 11 27  1  0
 12  1  2  0
 12 28  1  0
 13  3  1  0
 13 29  1  0
 13 30  1  0
 14 17  1  0
 14 31  1  0
 14 32  1  0
 15  5  2  0
 15 33  1  0
 16 10  1  0
 16 34  1  0
 16 35  1  0
 17 13  1  0
 17 36  1  0
 17 37  1  0
 18 16  1  0
 18 38  1  0
 18 39  1  0
 19 20  1  0
 19 40  1  0
 19 41  1  0
 20 18  1  0
 20 42  1  0
 20 43  1  0
 21 12  1  0
 21 44  1  0
 22 19  1  0
 22 45  1  0
 22 46  1  0
 22 47  1  0
 23 15  1  0
 23 21  2  0
 23 48  1  0
M  CHG  1   6  -1
M  END
> <Name>
CHEMBL370374

> <Clean Energy>
109.918999

> <chembl_id>
CHEMBL370374

> <chembl_pref_name>
None

> <efficacy>
0.32

> <Forcefield>
MMFF

> <ForcefieldBase>
MMFF

> <ForcefieldFFML>
<?xml version="1.0" encoding="UTF-8"?>
<!DOCTYPE ffml SYSTEM "Ffml.dtd">
<ffml version="1.0">
<forcefield name="MMFF" derivedFrom="MMFF" base="MMFF">
<atomTypes>
<atomType
name="C100"
element="C"
mass="12.011"
annotation=""/>
<atomType
name="O101"
element="O"
mass="16"
annotation=""/>
<atomType
name="H102"
element="H"
mass="1.008"
annotation=""/>
</atomTypes>
<parameters>
</parameters>
</forcefield>
</ffml>

> <Initial Potential Energy>
259.8646

> <Initial RMS Gradient>
35.11691

> <Minimization Criteria>
STEEPD> Minimization exiting with gradient tolerance ( 3.0000000) satisfied.

> <CHARMm Energy>
37.76361

> <Potential Energy>
37.76361

> <RMS Gradient>
0.01183

> <Bond Energy>
3.7015

> <Angle Energy>
7.4277

> <STRBend>
0.30526

> <Dihedral Energy>
-2.01508

> <OOPLane>
0.04072

> <Van der Waals Energy>
30.93463

> <Electrostatic Energy>
-2.63111

> <Hydrogen Bond Energy>
0

> <Solvation Free Energy>
0

> <HasGasteigerCharges>
true

> <REMARK99>
REMARK  99  MacroMolecule created from Mol2 file
REMARK  99  CHEMBL370374
REMARK  99  PROTEIN
REMARK  99  GASTEIGER
REMARK  99
REMARK  99

$$$$
CHEMBL1641713
  SciTegic05292516403D

 50 52  0  0  0  0            999 V2000
    1.2042  -10.5635    0.8302 C   0  0
    0.9044  -11.6264   -0.0251 C   0  0
    1.8263  -11.9961   -1.0087 C   0  0
    3.0344  -11.3088   -1.1458 C   0  0
    3.3223  -10.2277   -0.3057 C   0  0
    2.4138   -9.8693    0.6963 C   0  0
   -0.2348  -12.3819    0.0000 O   0  0
   -1.1980  -12.0625    0.9958 C   0  0
    4.6290   -9.5382   -0.4673 C   0  0
    5.6100  -10.2614   -0.6372 O   0  0
    4.7145   -8.0788   -0.4317 C   0  0
    5.9104   -7.3601   -0.3866 N   0  0
    5.6356   -6.0153   -0.3021 C   0  0
    4.2751   -5.8429   -0.3817 C   0  0
    3.7013   -7.1292   -0.4818 C   0  0
    7.2460   -7.9782   -0.4156 C   0  0
    8.4085   -7.0309   -0.5398 C   0  0
    9.4537   -7.0168    0.3054 C   0  0
   10.6346   -6.1570    0.1405 C   0  0
   11.9074   -6.6995    0.3901 C   0  0
   13.0513   -5.9096    0.2614 C   0  0
   12.9244   -4.5762   -0.1318 C   0  0
   11.6673   -4.0222   -0.3657 C   0  0
   10.5249   -4.8092   -0.2236 C   0  0
   14.3396   -6.3325    0.4380 O   0  0
   14.5601   -7.4748    1.2665 C   0  0
   14.7009   -8.7463    0.4437 C   0  0
   14.8583   -8.5127   -0.8822 O   0  0
   14.6951   -9.8740    0.9164 O   0  0
    0.5224  -10.2558    1.6168 H   0  0
    1.6023  -12.8325   -1.6678 H   0  0
    3.7543  -11.6181   -1.9018 H   0  0
    2.6427   -9.0645    1.3908 H   0  0
   -2.0378  -12.7549    0.8829 H   0  0
   -1.5837  -11.0466    0.8603 H   0  0
   -0.7868  -12.1992    2.0015 H   0  0
    6.4252   -5.2804   -0.2111 H   0  0
    3.7466   -4.8965   -0.3729 H   0  0
    2.6428   -7.3342   -0.5752 H   0  0
    7.3212   -8.5870    0.4925 H   0  0
    7.2643   -8.6281   -1.2972 H   0  0
    8.3990   -6.3842   -1.4144 H   0  0
    9.4808   -7.7063    1.1472 H   0  0
   11.9748   -7.7516    0.6534 H   0  0
   13.8123   -3.9573   -0.2464 H   0  0
   11.5802   -2.9779   -0.6561 H   0  0
    9.5502   -4.3598   -0.3981 H   0  0
   15.5159   -7.3168    1.7770 H   0  0
   13.7855   -7.5962    2.0310 H   0  0
   14.8565   -7.5460   -1.0616 H   0  0
  1  2  2  0
  1 30  1  0
  2  3  1  0
  2  7  1  0
  3  4  2  0
  3 31  1  0
  4  5  1  0
  4 32  1  0
  5  6  2  0
  5  9  1  0
  6  1  1  0
  6 33  1  0
  7  8  1  0
  8 34  1  0
  8 35  1  0
  8 36  1  0
  9 10  2  0
  9 11  1  0
 11 12  1  0
 12 13  1  0
 12 16  1  0
 13 14  2  0
 13 37  1  0
 14 15  1  0
 14 38  1  0
 15 11  2  0
 15 39  1  0
 16 17  1  0
 16 40  1  0
 16 41  1  0
 17 18  2  0
 17 42  1  0
 18 19  1  0
 18 43  1  0
 19 20  2  0
 20 21  1  0
 20 44  1  0
 21 22  2  0
 21 25  1  0
 22 23  1  0
 22 45  1  0
 23 24  2  0
 23 46  1  0
 24 19  1  0
 24 47  1  0
 25 26  1  0
 26 27  1  0
 26 48  1  0
 26 49  1  0
 27 28  1  0
 27 29  2  0
 28 50  1  0
M  END
> <Name>
CHEMBL1641713

> <Clean Energy>
24.2257

> <chembl_id>
CHEMBL1641713

> <chembl_pref_name>
None

> <efficacy>
0.018043685

> <Forcefield>
MMFF

> <ForcefieldBase>
MMFF

> <ForcefieldFFML>
<?xml version="1.0" encoding="UTF-8"?>
<!DOCTYPE ffml SYSTEM "Ffml.dtd">
<ffml version="1.0">
<forcefield name="MMFF" derivedFrom="MMFF" base="MMFF">
<atomTypes>
<atomType
name="C100"
element="C"
mass="12.011"
annotation=""/>
<atomType
name="O101"
element="O"
mass="16"
annotation=""/>
<atomType
name="N102"
element="N"
mass="14.007"
annotation=""/>
<atomType
name="H103"
element="H"
mass="1.008"
annotation=""/>
</atomTypes>
<parameters>
</parameters>
</forcefield>
</ffml>

> <Initial Potential Energy>
195.43394

> <Initial RMS Gradient>
30.05658

> <Minimization Criteria>
CONJUG> Minimization exiting with gradient tolerance ( 0.0100000) satisfied.

> <CHARMm Energy>
92.31339

> <Potential Energy>
92.31339

> <RMS Gradient>
0.00898

> <Bond Energy>
5.31468

> <Angle Energy>
19.35371

> <STRBend>
0.52691

> <Dihedral Energy>
5.28872

> <OOPLane>
0.08086

> <Van der Waals Energy>
55.16221

> <Electrostatic Energy>
6.58631

> <Hydrogen Bond Energy>
0

> <Solvation Free Energy>
0

> <HasGasteigerCharges>
true

> <REMARK99>
REMARK  99  MacroMolecule created from Mol2 file
REMARK  99  CHEMBL1641713
REMARK  99  PROTEIN
REMARK  99  GASTEIGER
REMARK  99
REMARK  99

$$$$
CHEMBL2204702
  SciTegic05292516403D

 61 63  0  0  0  0            999 V2000
   16.9877   -8.3908   -0.4689 C   0  0
   16.3745   -9.3031    0.6292 C   0  0
   16.4145   -7.4379   -0.9802 O   0  0
   18.2537   -8.7193   -0.8490 O   0  0
   15.1052   -8.8024    1.1031 O   0  0
   13.9613   -9.3283    0.5759 C   0  0
   13.5337   -9.0408   -0.7160 C   0  0
   12.3392   -9.5938   -1.1927 C   0  0
   11.5557  -10.4276   -0.3790 C   0  0
   11.9724  -10.6654    0.9369 C   0  0
   13.1628  -10.1079    1.4134 C   0  0
   10.3110  -11.0826   -0.9315 C   0  0
    9.0941  -10.1630   -1.0676 C   0  0
    8.3708   -9.9149    0.2573 C   0  0
    7.2161   -9.0955    0.0542 O   0  0
    6.0044   -9.6847   -0.1736 C   0  0
    4.9235   -8.7959   -0.1865 C   0  0
    3.6179   -9.2480   -0.4104 C   0  0
    3.3817  -10.6091   -0.6248 C   0  0
    4.4643  -11.4969   -0.6392 C   0  0
    5.7687  -11.0376   -0.4088 C   0  0
    2.0235  -11.1560   -0.8816 C   0  0
    0.8598  -10.4794   -0.2398 C   0  0
   -0.3839  -10.8636   -0.5691 C   0  0
    1.8816  -12.1572   -1.5776 O   0  0
   -1.6192  -10.3119    0.0080 C   0  0
   -1.7455   -8.9692    0.3863 C   0  0
   -2.9552   -8.4844    0.8937 C   0  0
   -4.0550   -9.3325    1.0183 C   0  0
   -3.9479  -10.6660    0.6322 C   0  0
   -2.7375  -11.1503    0.1262 C   0  0
   17.2756   -9.2092    1.8747 C   0  0
   16.3406  -10.7674    0.1549 C   0  0
   18.6259   -9.5014   -0.4053 H   0  0
   14.1145   -8.3837   -1.3578 H   0  0
   12.0239   -9.3758   -2.2116 H   0  0
   11.3798  -11.2934    1.5981 H   0  0
   13.4789  -10.2960    2.4362 H   0  0
   10.5628  -11.4771   -1.9253 H   0  0
   10.0508  -11.9632   -0.3302 H   0  0
    9.3705   -9.2034   -1.5218 H   0  0
    8.3898  -10.6251   -1.7699 H   0  0
    8.1312  -10.8426    0.7890 H   0  0
    9.0324   -9.3490    0.9234 H   0  0
    5.1118   -7.7350   -0.0287 H   0  0
    2.8120   -8.5204   -0.4398 H   0  0
    4.2996  -12.5560   -0.8318 H   0  0
    6.5706  -11.7660   -0.4382 H   0  0
    1.0518   -9.7224    0.5088 H   0  0
   -0.5301  -11.6581   -1.3008 H   0  0
   -0.9150   -8.2777    0.2768 H   0  0
   -3.0415   -7.4398    1.1830 H   0  0
   -4.9955   -8.9528    1.4093 H   0  0
   -4.8051  -11.3294    0.7206 H   0  0
   -2.6759  -12.1948   -0.1732 H   0  0
   16.8266   -9.7444    2.7199 H   0  0
   17.3917   -8.1652    2.1902 H   0  0
   18.2757   -9.6206    1.7061 H   0  0
   15.8483  -11.4139    0.8897 H   0  0
   17.3462  -11.1659   -0.0159 H   0  0
   15.7986  -10.8676   -0.7919 H   0  0
  1  2  1  0
  1  3  2  0
  1  4  1  0
  2  5  1  0
  2 32  1  0
  2 33  1  0
  4 34  1  0
  5  6  1  0
  6  7  1  0
  6 11  2  0
  7  8  2  0
  7 35  1  0
  8  9  1  0
  8 36  1  0
  9 10  2  0
  9 12  1  0
 10 11  1  0
 10 37  1  0
 11 38  1  0
 12 13  1  0
 12 39  1  0
 12 40  1  0
 13 14  1  0
 13 41  1  0
 13 42  1  0
 14 15  1  0
 14 43  1  0
 14 44  1  0
 15 16  1  0
 16 17  1  0
 16 21  2  0
 17 18  2  0
 17 45  1  0
 18 19  1  0
 18 46  1  0
 19 20  2  0
 19 22  1  0
 20 21  1  0
 20 47  1  0
 21 48  1  0
 22 23  1  0
 22 25  2  0
 23 24  2  0
 23 49  1  0
 24 26  1  0
 24 50  1  0
 26 27  1  0
 26 31  2  0
 27 28  2  0
 27 51  1  0
 28 29  1  0
 28 52  1  0
 29 30  2  0
 29 53  1  0
 30 31  1  0
 30 54  1  0
 31 55  1  0
 32 56  1  0
 32 57  1  0
 32 58  1  0
 33 59  1  0
 33 60  1  0
 33 61  1  0
M  END
> <Name>
CHEMBL2204702

> <Clean Energy>
23.962601

> <chembl_id>
CHEMBL2204702

> <chembl_pref_name>
None

> <efficacy>
0.199430199

> <Forcefield>
MMFF

> <ForcefieldBase>
MMFF

> <ForcefieldFFML>
<?xml version="1.0" encoding="UTF-8"?>
<!DOCTYPE ffml SYSTEM "Ffml.dtd">
<ffml version="1.0">
<forcefield name="MMFF" derivedFrom="MMFF" base="MMFF">
<atomTypes>
<atomType
name="C100"
element="C"
mass="12.011"
annotation=""/>
<atomType
name="O101"
element="O"
mass="16"
annotation=""/>
<atomType
name="H102"
element="H"
mass="1.008"
annotation=""/>
</atomTypes>
<parameters>
</parameters>
</forcefield>
</ffml>

> <Initial Potential Energy>
186.19106

> <Initial RMS Gradient>
27.42595

> <Minimization Criteria>
STEEPD> Minimization exiting with gradient tolerance ( 3.0000000) satisfied.

> <CHARMm Energy>
114.81087

> <Potential Energy>
114.81087

> <RMS Gradient>
0.06359

> <Bond Energy>
7.50112

> <Angle Energy>
23.7358

> <STRBend>
1.10134

> <Dihedral Energy>
10.67055

> <OOPLane>
0.10561

> <Van der Waals Energy>
68.35858

> <Electrostatic Energy>
3.33787

> <Hydrogen Bond Energy>
0

> <Solvation Free Energy>
0

> <HasGasteigerCharges>
true

> <REMARK99>
REMARK  99  MacroMolecule created from Mol2 file
REMARK  99  CHEMBL2204702
REMARK  99  PROTEIN
REMARK  99  GASTEIGER
REMARK  99
REMARK  99

$$$$
CHEMBL2312701
  SciTegic05292516403D

 48 50  0  0  0  0            999 V2000
   30.1627  -12.2383    1.7723 C   0  0
   29.6487  -13.4760    1.4042 C   0  0
   30.4087  -14.3242    0.5991 C   0  0
   31.6959  -13.9480    0.1525 C   0  0
   32.2215  -12.6854    0.5171 C   0  0
   31.4327  -11.8494    1.3319 C   0  0
   33.5429  -12.1964    0.0751 C   0  0
   34.7152  -12.5093    0.7815 C   0  0
   35.9713  -12.0213    0.3732 C   0  0
   36.0780  -11.2052   -0.7506 C   0  0
   34.9145  -10.8878   -1.4573 C   0  0
   33.6633  -11.3723   -1.0509 C   0  0
   37.2200  -10.6640   -1.2731 O   0  0
   38.4836  -10.8488   -0.6174 C   0  0  2  0  0  0
   39.4032   -9.6742   -1.0159 C   0  0
   40.4432   -9.4746   -0.1613 O   0  0
   39.2573   -8.9618   -1.9998 O   0  0
   39.1199  -12.1620   -1.1020 C   0  0
   40.2855  -12.6121   -0.2516 C   0  0
   41.6033  -12.4187   -0.6930 C   0  0
   42.6818  -12.7927    0.1101 C   0  0
   42.4546  -13.3696    1.3577 C   0  0
   41.1496  -13.5766    1.8008 C   0  0
   40.0686  -13.2009    1.0009 C   0  0
   32.4498  -14.9146   -0.7360 C   0  0
   32.0876  -14.7448   -2.2037 C   0  0
   29.5822  -11.5657    2.3967 H   0  0
   28.6571  -13.7805    1.7371 H   0  0
   29.9890  -15.2871    0.3102 H   0  0
   31.8163  -10.8746    1.6286 H   0  0
   34.6539  -13.1419    1.6655 H   0  0
   36.8349  -12.3065    0.9612 H   0  0
   34.9786  -10.2495   -2.3365 H   0  0
   32.7778  -11.0987   -1.6223 H   0  0
   38.3532  -10.7923    0.4695 H   0  0
   40.4873  -10.1245    0.5686 H   0  0
   38.3758  -12.9687   -1.1181 H   0  0
   39.4377  -12.0611   -2.1488 H   0  0
   41.7991  -11.9673   -1.6648 H   0  0
   43.7007  -12.6373   -0.2388 H   0  0
   43.2966  -13.6666    1.9794 H   0  0
   40.9701  -14.0396    2.7684 H   0  0
   39.0602  -13.3855    1.3621 H   0  0
   33.5314  -14.8054   -0.6041 H   0  0
   32.2248  -15.9420   -0.4227 H   0  0
   32.6438  -15.4630   -2.8146 H   0  0
   32.3270  -13.7386   -2.5622 H   0  0
   31.0188  -14.9149   -2.3719 H   0  0
  1  2  2  0
  1 27  1  0
  2  3  1  0
  2 28  1  0
  3  4  2  0
  3 29  1  0
  4  5  1  0
  4 25  1  0
  5  6  2  0
  5  7  1  0
  6  1  1  0
  6 30  1  0
  7  8  2  0
  8  9  1  0
  8 31  1  0
  9 10  2  0
  9 32  1  0
 10 11  1  0
 10 13  1  0
 11 12  2  0
 11 33  1  0
 12  7  1  0
 12 34  1  0
 13 14  1  0
 14 15  1  0
 14 18  1  0
 14 35  1  0
 15 16  1  0
 15 17  2  0
 16 36  1  0
 18 19  1  0
 18 37  1  0
 18 38  1  0
 19 20  2  0
 20 21  1  0
 20 39  1  0
 21 22  2  0
 21 40  1  0
 22 23  1  0
 22 41  1  0
 23 24  2  0
 23 42  1  0
 24 19  1  0
 24 43  1  0
 25 26  1  0
 25 44  1  0
 25 45  1  0
 26 46  1  0
 26 47  1  0
 26 48  1  0
M  END
> <Name>
CHEMBL2312701

> <Clean Energy>
34.773899

> <chembl_id>
CHEMBL2312701

> <chembl_pref_name>
None

> <efficacy>
0.28

> <Forcefield>
MMFF

> <ForcefieldBase>
MMFF

> <ForcefieldFFML>
<?xml version="1.0" encoding="UTF-8"?>
<!DOCTYPE ffml SYSTEM "Ffml.dtd">
<ffml version="1.0">
<forcefield name="MMFF" derivedFrom="MMFF" base="MMFF">
<atomTypes>
<atomType
name="C100"
element="C"
mass="12.011"
annotation=""/>
<atomType
name="O101"
element="O"
mass="16"
annotation=""/>
<atomType
name="H102"
element="H"
mass="1.008"
annotation=""/>
</atomTypes>
<parameters>
</parameters>
</forcefield>
</ffml>

> <Initial Potential Energy>
181.87887

> <Initial RMS Gradient>
31.76996

> <Minimization Criteria>
STEEPD> Minimization exiting with gradient tolerance ( 3.0000000) satisfied.

> <CHARMm Energy>
81.17785

> <Potential Energy>
81.17785

> <RMS Gradient>
0.09687

> <Bond Energy>
7.50089

> <Angle Energy>
12.49771

> <STRBend>
-0.16324

> <Dihedral Energy>
4.56689

> <OOPLane>
0.0161

> <Van der Waals Energy>
53.00004

> <Electrostatic Energy>
3.75946

> <Hydrogen Bond Energy>
0

> <Solvation Free Energy>
0

> <HasGasteigerCharges>
true

> <REMARK99>
REMARK  99  MacroMolecule created from Mol2 file
REMARK  99  CHEMBL2312701
REMARK  99  PROTEIN
REMARK  99  GASTEIGER
REMARK  99
REMARK  99

$$$$
CHEMBL2338482
  SciTegic05292516403D

 42 44  0  0  0  0            999 V2000
   29.0873  -11.8472    0.9541 C   0  0
   28.0772  -12.4659    0.2067 C   0  0
   27.0435  -11.6490   -0.2713 C   0  0
   27.0332  -10.2530   -0.0321 C   0  0
   28.0788   -9.6293    0.6577 C   0  0
   29.0753  -10.4521    1.1965 C   0  0
   27.8366   -7.0723   -0.3733 S   0  0
   28.1398   -8.1960    0.8988 N   0  0
   26.1208   -6.6674   -0.1968 C   0  0
   25.4415   -6.0278   -1.2392 C   0  0
   24.0816   -5.7243   -1.0993 C   0  0
   23.4105   -6.0649    0.0736 C   0  0
   24.0867   -6.6808    1.1237 C   0  0
   25.4450   -6.9782    0.9939 C   0  0
   28.2670  -13.7329   -0.3170 O   0  0
   27.1431  -15.0216    1.4905 C   0  0
   27.8002  -14.8835    0.2798 C   0  0
   28.0454  -16.0661   -0.4456 C   0  0
   27.6397  -17.3201    0.0453 C   0  0
   26.9917  -17.3432    1.2716 C   0  0
   26.7335  -16.2257    2.0036 N   0  0
   27.8650  -18.6131   -0.6769 C   0  0
   28.0178   -7.8229   -1.5987 O   0  0
   28.5874   -5.8773   -0.0498 O   0  0
   21.7414   -5.6804    0.2419 Cl  0  0
   26.1970   -5.5141   -2.7055 Cl  0  0
   25.7684  -12.3124   -1.2321 Cl  0  0
   30.4302  -12.7582    1.5500 Cl  0  0
   28.5118  -18.5659   -2.0369 C   0  0
   27.5302  -19.6836   -0.1699 O   0  0
   26.2166   -9.6665   -0.4435 H   0  0
   29.8917  -10.0138    1.7660 H   0  0
   28.9037   -7.8222    1.4722 H   0  0
   23.5492   -5.2145   -1.9002 H   0  0
   23.5642   -6.9087    2.0507 H   0  0
   25.9588   -7.4281    1.8387 H   0  0
   26.9150  -14.1695    2.1224 H   0  0
   28.5630  -15.9791   -1.3979 H   0  0
   26.6489  -18.2785    1.7141 H   0  0
   28.5557  -19.5784   -2.4499 H   0  0
   29.5327  -18.1847   -1.9561 H   0  0
   27.9186  -17.9499   -2.7178 H   0  0
  1  2  1  0
  1  6  2  0
  1 28  1  0
  2  3  2  0
  2 15  1  0
  3  4  1  0
  3 27  1  0
  4  5  2  0
  4 31  1  0
  5  6  1  0
  5  8  1  0
  6 32  1  0
  7  8  1  0
  7  9  1  0
  7 23  2  0
  7 24  2  0
  8 33  1  0
  9 10  1  0
  9 14  2  0
 10 11  2  0
 10 26  1  0
 11 12  1  0
 11 34  1  0
 12 13  2  0
 12 25  1  0
 13 14  1  0
 13 35  1  0
 14 36  1  0
 15 17  1  0
 16 17  1  0
 16 21  2  0
 16 37  1  0
 17 18  2  0
 18 19  1  0
 18 38  1  0
 19 20  2  0
 19 22  1  0
 20 21  1  0
 20 39  1  0
 22 29  1  0
 22 30  2  0
 29 40  1  0
 29 41  1  0
 29 42  1  0
M  END
> <Name>
CHEMBL2338482

> <Clean Energy>
48.331902

> <chembl_id>
CHEMBL2338482

> <chembl_pref_name>
None

> <efficacy>
0.25

> <Forcefield>
MMFF

> <ForcefieldBase>
MMFF

> <ForcefieldFFML>
<?xml version="1.0" encoding="UTF-8"?>
<!DOCTYPE ffml SYSTEM "Ffml.dtd">
<ffml version="1.0">
<forcefield name="MMFF" derivedFrom="MMFF" base="MMFF">
<atomTypes>
<atomType
name="C100"
element="C"
mass="12.011"
annotation=""/>
<atomType
name="S101"
element="S"
mass="32.066"
annotation=""/>
<atomType
name="N102"
element="N"
mass="14.007"
annotation=""/>
<atomType
name="O103"
element="O"
mass="16"
annotation=""/>
<atomType
name="Cl104"
element="Cl"
mass="35.453"
annotation=""/>
<atomType
name="H105"
element="H"
mass="1.008"
annotation=""/>
</atomTypes>
<parameters>
</parameters>
</forcefield>
</ffml>

> <Initial Potential Energy>
238.0639

> <Initial RMS Gradient>
43.8851

> <Minimization Criteria>
STEEPD> Minimization exiting with gradient tolerance ( 3.0000000) satisfied.

> <CHARMm Energy>
17.77008

> <Potential Energy>
17.77008

> <RMS Gradient>
0.08898

> <Bond Energy>
6.5576

> <Angle Energy>
22.10397

> <STRBend>
2.0466

> <Dihedral Energy>
9.6819

> <OOPLane>
0.69825

> <Van der Waals Energy>
52.13076

> <Electrostatic Energy>
-75.449

> <Hydrogen Bond Energy>
0

> <Solvation Free Energy>
0

> <HasGasteigerCharges>
true

> <REMARK99>
REMARK  99  MacroMolecule created from Mol2 file
REMARK  99  CHEMBL2338482
REMARK  99  PROTEIN
REMARK  99  GASTEIGER
REMARK  99
REMARK  99

$$$$
CHEMBL110371
  SciTegic05292516403D

 71 75  0  0  0  0            999 V2000
   14.1641   -2.3728   -0.2921 N   0  0
    1.4640   -2.8442   -0.1042 C   0  0
   13.3552   -1.2937   -0.4094 C   0  0
    0.8557   -4.0473   -0.5001 C   0  0
   13.5937   -3.6037   -0.1759 C   0  0
   -1.2969   -2.9299   -0.4262 C   0  0
    0.7006   -1.6811    0.1388 C   0  0
   11.6845   -1.7719   -0.3720 S   0  0
   -0.5402   -4.0844   -0.7000 C   0  0
   -0.6960   -1.7115   -0.0677 C   0  0
    2.8175   -2.7195    0.0832 O   0  0
   12.0884   -3.5521   -0.2659 C   0  0  2  0  0  0
   -2.6635   -2.9928   -0.5646 O   0  0
    1.6944   -5.2731   -0.7433 C   0  0
    3.6809   -3.7696   -0.3940 C   0  0  2  0  0  0
   13.7388   -0.1417   -0.5196 O   0  0
   14.2494   -4.6275   -0.0290 O   0  0
   11.4609   -4.2512    0.9426 C   0  0
    3.0660   -5.1455   -0.1091 C   0  0
    5.8919   -4.6846    0.0155 O   0  0
   -3.2795   -3.3181    0.6922 C   0  0
    9.9678   -4.4030    0.7983 C   0  0
    5.0011   -3.6319    0.3912 C   0  0
    7.2039   -4.5446    0.3579 C   0  0
    9.0947   -3.5436    1.4767 C   0  0
    9.4405   -5.3673   -0.0673 C   0  0
    1.3868   -0.3996    0.5498 C   0  0
    8.0662   -5.4356   -0.2822 C   0  0
    7.7174   -3.6159    1.2601 C   0  0
   -1.2272   -5.3488   -1.1515 C   0  0
   -1.5350   -0.4733    0.1168 C   0  0
   -4.5862   -4.0339    0.4402 C   0  0
    3.9580   -3.5466   -1.8914 C   0  0
   -5.4537   -3.6093   -0.5762 C   0  0
   -4.9667   -5.1158    1.2482 C   0  0
   -6.1763   -5.7737    1.0268 C   0  0
   -6.6623   -4.2682   -0.7969 C   0  0
   -7.0213   -5.3513    0.0027 C   0  0
   15.1674   -2.2569   -0.2758 H   0  0
   11.7967   -4.0255   -1.2102 H   0  0
    1.2083   -6.1599   -0.3205 H   0  0
    1.7910   -5.4300   -1.8239 H   0  0
   11.8914   -5.2543    1.0653 H   0  0
   11.7063   -3.7233    1.8741 H   0  0
    2.9539   -5.2704    0.9768 H   0  0
    3.7078   -5.9611   -0.4617 H   0  0
   -2.6263   -3.9533    1.3058 H   0  0
   -3.4859   -2.3935    1.2441 H   0  0
    5.4375   -2.6460    0.1793 H   0  0
    4.8034   -3.6852    1.4698 H   0  0
    9.4832   -2.7919    2.1612 H   0  0
   10.0927   -6.0578   -0.5969 H   0  0
    0.7805    0.1583    1.2705 H   0  0
    1.5669    0.2237   -0.3315 H   0  0
    2.3436   -0.5843    1.0481 H   0  0
    7.6667   -6.1746   -0.9725 H   0  0
    7.0800   -2.9258    1.8016 H   0  0
   -0.6294   -5.8777   -1.9005 H   0  0
   -2.1892   -5.1440   -1.6314 H   0  0
   -1.3975   -6.0075   -0.2944 H   0  0
   -1.0365    0.4038   -0.3085 H   0  0
   -1.7235   -0.3035    1.1812 H   0  0
   -2.4977   -0.5482   -0.3989 H   0  0
    4.5942   -4.3340   -2.3084 H   0  0
    4.4540   -2.5818   -2.0508 H   0  0
    3.0356   -3.5054   -2.4797 H   0  0
   -5.1794   -2.7687   -1.2105 H   0  0
   -4.3161   -5.4592    2.0495 H   0  0
   -6.4641   -6.6152    1.6521 H   0  0
   -7.3240   -3.9369   -1.5931 H   0  0
   -7.9619   -5.8661   -0.1715 H   0  0
  1 39  1  0
  2  4  1  0
  2 11  1  0
  3  1  1  0
  4 14  1  0
  5  1  1  0
  6  9  1  0
  7  2  2  0
  8  3  1  0
  8 12  1  0
  9  4  2  0
 10  6  2  0
 10  7  1  0
 11 15  1  0
 12  5  1  0
 12 40  1  0
 13  6  1  0
 14 19  1  0
 14 41  1  0
 14 42  1  0
 15 23  1  0
 16  3  2  0
 17  5  2  0
 18 12  1  0
 18 43  1  0
 18 44  1  0
 19 15  1  0
 19 45  1  0
 19 46  1  0
 20 24  1  0
 21 13  1  0
 21 47  1  0
 21 48  1  0
 22 18  1  0
 23 20  1  0
 23 49  1  0
 23 50  1  0
 24 28  2  0
 25 22  1  0
 25 51  1  0
 26 22  2  0
 26 52  1  0
 27  7  1  0
 27 53  1  0
 27 54  1  0
 27 55  1  0
 28 26  1  0
 28 56  1  0
 29 24  1  0
 29 25  2  0
 29 57  1  0
 30  9  1  0
 30 58  1  0
 30 59  1  0
 30 60  1  0
 31 10  1  0
 31 61  1  0
 31 62  1  0
 31 63  1  0
 32 21  1  0
 33 15  1  0
 33 64  1  0
 33 65  1  0
 33 66  1  0
 34 32  2  0
 34 67  1  0
 35 32  1  0
 35 68  1  0
 36 35  2  0
 36 69  1  0
 37 34  1  0
 37 38  2  0
 37 70  1  0
 38 36  1  0
 38 71  1  0
M  END
> <Name>
CHEMBL110371

> <Clean Energy>
57.072701

> <chembl_id>
CHEMBL110371

> <chembl_pref_name>
None

> <efficacy>
0.435126582

> <Forcefield>
MMFF

> <ForcefieldBase>
MMFF

> <ForcefieldFFML>
<?xml version="1.0" encoding="UTF-8"?>
<!DOCTYPE ffml SYSTEM "Ffml.dtd">
<ffml version="1.0">
<forcefield name="MMFF" derivedFrom="MMFF" base="MMFF">
<atomTypes>
<atomType
name="N100"
element="N"
mass="14.007"
annotation=""/>
<atomType
name="C101"
element="C"
mass="12.011"
annotation=""/>
<atomType
name="S102"
element="S"
mass="32.066"
annotation=""/>
<atomType
name="O103"
element="O"
mass="16"
annotation=""/>
<atomType
name="H104"
element="H"
mass="1.008"
annotation=""/>
</atomTypes>
<parameters>
</parameters>
</forcefield>
</ffml>

> <Initial Potential Energy>
224.85761

> <Initial RMS Gradient>
34.45877

> <Minimization Criteria>
STEEPD> Minimization exiting with gradient tolerance ( 3.0000000) satisfied.

> <CHARMm Energy>
39.14575

> <Potential Energy>
39.14575

> <RMS Gradient>
0.05908

> <Bond Energy>
8.01597

> <Angle Energy>
19.05434

> <STRBend>
0.68537

> <Dihedral Energy>
18.33451

> <OOPLane>
0.08532

> <Van der Waals Energy>
78.71382

> <Electrostatic Energy>
-85.74358

> <Hydrogen Bond Energy>
0

> <Solvation Free Energy>
0

> <HasGasteigerCharges>
true

> <REMARK99>
REMARK  99  MacroMolecule created from Mol2 file
REMARK  99  CHEMBL110371
REMARK  99  PROTEIN
REMARK  99  GASTEIGER
REMARK  99
REMARK  99

$$$$
CHEMBL474551
  SciTegic05292516403D

 57 61  0  0  0  0            999 V2000
    1.4765  -11.7912   -0.8818 C   0  0
    2.8173  -12.3172   -0.7927 C   0  0
    3.4003  -12.4804    0.3980 N   0  0
    4.6478  -12.8788    0.0697 N   0  0
    4.8915  -13.0814   -1.2651 N   0  0
    3.7326  -12.6502   -1.8135 C   0  0
    3.5635  -12.5410   -3.2552 C   0  0
    4.6303  -13.0436   -3.9445 O   0  0
    2.5872  -12.0623   -3.8137 O   0  0
   -7.0177   -2.6639    1.0984 C   0  0
   -7.1986   -2.9929    2.4406 C   0  0
   -6.2969   -3.8438    3.0767 C   0  0
   -5.2117   -4.3644    2.3683 C   0  0
   -5.0142   -4.0414    1.0162 C   0  0
   -5.9314   -3.1851    0.3898 C   0  0
   -3.8641   -4.5991    0.3125 C   0  0
   -3.7098   -4.2664   -1.0104 O   0  0
   -2.5604   -4.9037   -1.3883 C   0  0
   -2.0793   -5.5866   -0.2922 C   0  0
   -2.9223   -5.4007    0.7744 N   0  0
   -2.1324   -4.7424   -2.7890 C   0  0
   -0.8889   -6.4488   -0.1424 C   0  0
   -1.2418   -7.9167   -0.3400 C   0  0
   -0.0944   -8.6769    0.0202 O   0  0
   -0.0284   -9.9483   -0.4633 C   0  0
   -1.0764  -10.6923   -1.0014 C   0  0
   -0.8449  -11.9816   -1.4927 C   0  0
    0.4345  -12.5323   -1.4426 C   0  0
    1.2382  -10.5102   -0.3821 C   0  0
    5.6563  -13.0280    1.0531 C   0  0
    6.9707  -13.3216    0.6742 C   0  0
    7.9623  -13.3986    1.6500 C   0  0
    7.6460  -13.2025    2.9948 C   0  0
    6.3357  -12.9365    3.3787 C   0  0
    5.3397  -12.8451    2.4096 C   0  0
    5.2910  -13.3719   -3.2906 H   0  0
   -7.7206   -2.0014    0.6001 H   0  0
   -8.0424   -2.5869    2.9917 H   0  0
   -6.4357   -4.1025    4.1231 H   0  0
   -4.5106   -5.0270    2.8758 H   0  0
   -5.8065   -2.9151   -0.6566 H   0  0
   -1.0450   -4.8259   -2.8776 H   0  0
   -2.4282   -3.7638   -3.1795 H   0  0
   -2.5882   -5.5151   -3.4152 H   0  0
   -0.1038   -6.1573   -0.8508 H   0  0
   -0.4526   -6.3034    0.8542 H   0  0
   -2.0815   -8.2090    0.3024 H   0  0
   -1.5183   -8.0738   -1.3908 H   0  0
   -2.0858  -10.2996   -1.0484 H   0  0
   -1.6680  -12.5510   -1.9175 H   0  0
    0.6040  -13.5329   -1.8332 H   0  0
    2.0461   -9.9330    0.0629 H   0  0
    7.2468  -13.4756   -0.3664 H   0  0
    8.9891  -13.6084    1.3620 H   0  0
    8.4256  -13.2634    3.7491 H   0  0
    6.0945  -12.7939    4.4291 H   0  0
    4.3218  -12.6205    2.7245 H   0  0
  1  2  1  0
  1 29  2  0
  2  3  2  0
  3  4  1  0
  4  5  1  0
  4 30  1  0
  5  6  2  0
  6  2  1  0
  6  7  1  0
  7  8  1  0
  7  9  2  0
  8 36  1  0
 10 11  2  0
 10 37  1  0
 11 12  1  0
 11 38  1  0
 12 13  2  0
 12 39  1  0
 13 14  1  0
 13 40  1  0
 14 15  2  0
 14 16  1  0
 15 10  1  0
 15 41  1  0
 16 17  1  0
 17 18  1  0
 18 19  2  0
 18 21  1  0
 19 20  1  0
 19 22  1  0
 20 16  2  0
 21 42  1  0
 21 43  1  0
 21 44  1  0
 22 23  1  0
 22 45  1  0
 22 46  1  0
 23 24  1  0
 23 47  1  0
 23 48  1  0
 24 25  1  0
 25 26  2  0
 26 27  1  0
 26 49  1  0
 27 28  2  0
 27 50  1  0
 28  1  1  0
 28 51  1  0
 29 25  1  0
 29 52  1  0
 30 31  2  0
 31 32  1  0
 31 53  1  0
 32 33  2  0
 32 54  1  0
 33 34  1  0
 33 55  1  0
 34 35  2  0
 34 56  1  0
 35 30  1  0
 35 57  1  0
M  END
> <Name>
CHEMBL474551

> <Clean Energy>
47.102699

> <chembl_id>
CHEMBL474551

> <chembl_pref_name>
None

> <efficacy>
0.39

> <Forcefield>
MMFF

> <ForcefieldBase>
MMFF

> <ForcefieldFFML>
<?xml version="1.0" encoding="UTF-8"?>
<!DOCTYPE ffml SYSTEM "Ffml.dtd">
<ffml version="1.0">
<forcefield name="MMFF" derivedFrom="MMFF" base="MMFF">
<atomTypes>
<atomType
name="C100"
element="C"
mass="12.011"
annotation=""/>
<atomType
name="N101"
element="N"
mass="14.007"
annotation=""/>
<atomType
name="O102"
element="O"
mass="16"
annotation=""/>
<atomType
name="H103"
element="H"
mass="1.008"
annotation=""/>
</atomTypes>
<parameters>
</parameters>
</forcefield>
</ffml>

> <Initial Potential Energy>
206.1419

> <Initial RMS Gradient>
35.31868

> <Minimization Criteria>
STEEPD> Minimization exiting with gradient tolerance ( 3.0000000) satisfied.

> <CHARMm Energy>
100.14823

> <Potential Energy>
100.14823

> <RMS Gradient>
0.08849

> <Bond Energy>
5.37565

> <Angle Energy>
11.11749

> <STRBend>
-0.07129

> <Dihedral Energy>
6.19675

> <OOPLane>
0.0563

> <Van der Waals Energy>
61.64973

> <Electrostatic Energy>
15.8236

> <Hydrogen Bond Energy>
0

> <Solvation Free Energy>
0

> <HasGasteigerCharges>
true

> <REMARK99>
REMARK  99  MacroMolecule created from Mol2 file
REMARK  99  CHEMBL474551
REMARK  99  PROTEIN
REMARK  99  GASTEIGER
REMARK  99
REMARK  99

$$$$
CHEMBL4874383
  SciTegic05292516403D

 50 53  0  0  0  0            999 V2000
   36.1338  -12.8072    1.0785 C   0  0
   36.3105  -13.8834    0.2042 C   0  0
   37.5112  -14.0682   -0.4929 C   0  0
   37.1507  -11.8643    1.2868 C   0  0
   38.3743  -12.0589    0.5987 C   0  0
   38.5304  -13.1323   -0.2736 C   0  0
   39.8098  -12.9831   -0.7706 N   0  0
   40.3579  -11.8401   -0.2180 C   0  0
   39.5190  -11.2936    0.6386 N   0  0
   41.7260  -11.3244   -0.5431 C   0  0
   41.8816   -9.8387   -0.2102 C   0  0
   43.2634   -9.3267   -0.5863 C   0  0
   40.4461  -13.8532   -1.7542 C   0  0
   41.6842  -14.5414   -1.2268 C   0  0
   41.6812  -15.1902    0.0149 C   0  0
   42.8359  -15.8132    0.4930 C   0  0
   44.0169  -15.8263   -0.2646 C   0  0
   44.0108  -15.2012   -1.5188 C   0  0
   42.8574  -14.5694   -1.9968 C   0  0
   45.2312  -16.4689    0.2598 C   0  0
   45.3332  -17.8616    0.4382 C   0  0
   46.4906  -18.4144    1.0089 C   0  0
   47.5587  -17.6012    1.3835 C   0  0
   47.4855  -16.2285    1.1817 C   0  0
   46.3331  -15.6688    0.6270 C   0  0
   36.9669  -10.8110    2.1843 N   0  0
   44.3023  -18.7698    0.0160 C   0  0
   43.5464  -19.5814   -0.3297 N   0  0
   35.1898  -12.7066    1.6096 H   0  0
   35.5002  -14.5970    0.0673 H   0  0
   37.6293  -14.9081   -1.1686 H   0  0
   42.4679  -11.9023    0.0204 H   0  0
   41.9323  -11.4660   -1.6100 H   0  0
   41.1229   -9.2522   -0.7431 H   0  0
   41.7188   -9.6723    0.8617 H   0  0
   43.3538   -8.2647   -0.3384 H   0  0
   43.4456   -9.4416   -1.6595 H   0  0
   44.0439   -9.8706   -0.0447 H   0  0
   39.7280  -14.6107   -2.0827 H   0  0
   40.6738  -13.2213   -2.6210 H   0  0
   40.7852  -15.2043    0.6345 H   0  0
   42.8065  -16.2852    1.4741 H   0  0
   44.9099  -15.2092   -2.1350 H   0  0
   42.8887  -14.0948   -2.9759 H   0  0
   46.5613  -19.4895    1.1595 H   0  0
   48.4471  -18.0369    1.8302 H   0  0
   48.3219  -15.5931    1.4651 H   0  0
   46.2899  -14.5885    0.4960 H   0  0
   36.0544  -10.3809    2.2564 H   0  0
   37.7808  -10.2064    2.2735 H   0  0
  1  2  2  0
  1 29  1  0
  2  3  1  0
  2 30  1  0
  3  6  2  0
  3 31  1  0
  4  1  1  0
  4 26  1  0
  5  4  2  0
  5  6  1  0
  6  7  1  0
  7  8  1  0
  7 13  1  0
  8  9  2  0
  8 10  1  0
  9  5  1  0
 10 11  1  0
 10 32  1  0
 10 33  1  0
 11 12  1  0
 11 34  1  0
 11 35  1  0
 12 36  1  0
 12 37  1  0
 12 38  1  0
 13 14  1  0
 13 39  1  0
 13 40  1  0
 14 15  2  0
 15 16  1  0
 15 41  1  0
 16 17  2  0
 16 42  1  0
 17 18  1  0
 17 20  1  0
 18 19  2  0
 18 43  1  0
 19 14  1  0
 19 44  1  0
 20 21  2  0
 21 22  1  0
 21 27  1  0
 22 23  2  0
 22 45  1  0
 23 24  1  0
 23 46  1  0
 24 25  2  0
 24 47  1  0
 25 20  1  0
 25 48  1  0
 26 49  1  0
 26 50  1  0
 27 28  3  0
M  END
> <Name>
CHEMBL4874383

> <Clean Energy>
67.1698

> <chembl_id>
CHEMBL4874383

> <chembl_pref_name>
None

> <efficacy>
0.408357075

> <Forcefield>
MMFF

> <ForcefieldBase>
MMFF

> <ForcefieldFFML>
<?xml version="1.0" encoding="UTF-8"?>
<!DOCTYPE ffml SYSTEM "Ffml.dtd">
<ffml version="1.0">
<forcefield name="MMFF" derivedFrom="MMFF" base="MMFF">
<atomTypes>
<atomType
name="C100"
element="C"
mass="12.011"
annotation=""/>
<atomType
name="N101"
element="N"
mass="14.007"
annotation=""/>
<atomType
name="H102"
element="H"
mass="1.008"
annotation=""/>
</atomTypes>
<parameters>
</parameters>
</forcefield>
</ffml>

> <Initial Potential Energy>
264.44249

> <Initial RMS Gradient>
34.67049

> <Minimization Criteria>
STEEPD> Minimization exiting with gradient tolerance ( 3.0000000) satisfied.

> <CHARMm Energy>
96.67844

> <Potential Energy>
96.67844

> <RMS Gradient>
0.13829

> <Bond Energy>
6.84003

> <Angle Energy>
6.43143

> <STRBend>
-0.85026

> <Dihedral Energy>
6.0146

> <OOPLane>
1.9393

> <Van der Waals Energy>
51.34346

> <Electrostatic Energy>
24.95989

> <Hydrogen Bond Energy>
0

> <Solvation Free Energy>
0

> <HasGasteigerCharges>
true

> <REMARK99>
REMARK  99  MacroMolecule created from Mol2 file
REMARK  99  CHEMBL4874383
REMARK  99  PROTEIN
REMARK  99  GASTEIGER
REMARK  99
REMARK  99

$$$$
CHEMBL4439891
  SciTegic05292516403D

 38 39  0  0  0  0            999 V2000
   24.5136  -13.9832    0.1067 C   0  0
   24.6142  -15.1495    0.8261 C   0  0
   25.8885  -15.5478    1.1383 C   0  0
   27.0059  -14.8945    0.8005 N   0  0
   26.8035  -13.7671    0.1209 C   0  0
   25.6076  -13.2730   -0.2326 N   0  0
   23.2887  -13.4347   -0.2784 N   0  0
   21.9717  -13.9308   -0.3569 C   0  0
   20.8727  -13.0683   -0.0963 C   0  0
   19.5483  -13.5600   -0.2046 C   0  0
   19.3397  -14.9114   -0.5147 C   0  0
   20.4133  -15.7647   -0.7434 C   0  0
   21.7155  -15.2753   -0.6684 C   0  0
   21.1309  -11.6224    0.2602 C   0  0
   18.3394  -12.6890    0.0290 C   0  0
   27.8878  -13.0001   -0.2669 O   0  0
   29.1319  -13.7062   -0.1615 C   0  0
   30.2040  -12.8857   -0.8544 C   0  0
   26.1592  -16.9892    2.0310 Cl  0  0
   30.8131  -11.8966    0.0989 C   0  0
   30.1930  -10.6994    0.1285 O   0  0
   31.7937  -12.1399    0.7874 O   0  0
   23.7527  -15.7099    1.1569 H   0  0
   23.4231  -12.5169   -0.6877 H   0  0
   18.3277  -15.3089   -0.5870 H   0  0
   20.2256  -16.8069   -0.9951 H   0  0
   22.5335  -15.9515   -0.9012 H   0  0
   20.2945  -11.1749    0.8043 H   0  0
   21.3057  -11.0412   -0.6505 H   0  0
   21.9983  -11.5265    0.9219 H   0  0
   17.4137  -13.1993   -0.2583 H   0  0
   18.4028  -11.7772   -0.5734 H   0  0
   18.2635  -12.4271    1.0890 H   0  0
   29.3804  -13.8762    0.8933 H   0  0
   29.0528  -14.6683   -0.6841 H   0  0
   31.0192  -13.5381   -1.1898 H   0  0
   29.8279  -12.3630   -1.7405 H   0  0
   29.3783  -10.6695   -0.4118 H   0  0
  1  2  2  0
  1  7  1  0
  2  3  1  0
  2 23  1  0
  3  4  2  0
  3 19  1  0
  4  5  1  0
  5  6  2  0
  5 16  1  0
  6  1  1  0
  7  8  1  0
  7 24  1  0
  8  9  2  0
  9 10  1  0
  9 14  1  0
 10 11  2  0
 10 15  1  0
 11 12  1  0
 11 25  1  0
 12 13  2  0
 12 26  1  0
 13  8  1  0
 13 27  1  0
 14 28  1  0
 14 29  1  0
 14 30  1  0
 15 31  1  0
 15 32  1  0
 15 33  1  0
 16 17  1  0
 17 18  1  0
 17 34  1  0
 17 35  1  0
 18 20  1  0
 18 36  1  0
 18 37  1  0
 20 21  1  0
 20 22  2  0
 21 38  1  0
M  END
> <Name>
CHEMBL4439891

> <Clean Energy>
3.37805

> <chembl_id>
CHEMBL4439891

> <chembl_pref_name>
None

> <efficacy>
0.14

> <Forcefield>
MMFF

> <ForcefieldBase>
MMFF

> <ForcefieldFFML>
<?xml version="1.0" encoding="UTF-8"?>
<!DOCTYPE ffml SYSTEM "Ffml.dtd">
<ffml version="1.0">
<forcefield name="MMFF" derivedFrom="MMFF" base="MMFF">
<atomTypes>
<atomType
name="C100"
element="C"
mass="12.011"
annotation=""/>
<atomType
name="N101"
element="N"
mass="14.007"
annotation=""/>
<atomType
name="O102"
element="O"
mass="16"
annotation=""/>
<atomType
name="Cl103"
element="Cl"
mass="35.453"
annotation=""/>
<atomType
name="H104"
element="H"
mass="1.008"
annotation=""/>
</atomTypes>
<parameters>
</parameters>
</forcefield>
</ffml>

> <Initial Potential Energy>
-13.32917

> <Initial RMS Gradient>
37.28129

> <Minimization Criteria>
CONJUG> Minimization exiting with gradient tolerance ( 0.0100000) satisfied.

> <CHARMm Energy>
-107.41312

> <Potential Energy>
-107.41312

> <RMS Gradient>
0.00957

> <Bond Energy>
3.20894

> <Angle Energy>
11.94968

> <STRBend>
0.24091

> <Dihedral Energy>
5.45648

> <OOPLane>
0.12235

> <Van der Waals Energy>
43.37979

> <Electrostatic Energy>
-171.77128

> <Hydrogen Bond Energy>
0

> <Solvation Free Energy>
0

> <HasGasteigerCharges>
true

> <REMARK99>
REMARK  99  MacroMolecule created from Mol2 file
REMARK  99  CHEMBL4439891
REMARK  99  PROTEIN
REMARK  99  GASTEIGER
REMARK  99
REMARK  99

$$$$
CHEMBL4072125
  SciTegic05292516403D

 53 55  0  0  0  0            999 V2000
    3.2961   -7.9509    1.8671 C   0  0
    2.9893   -8.4027    0.5758 C   0  0
    4.0143   -8.4319   -0.3840 C   0  0
    5.3147   -8.0074   -0.0681 C   0  0
    5.6062   -7.5519    1.2159 C   0  0
    4.5914   -7.5185    2.1776 C   0  0
    6.8124   -7.0036    1.5910 O   0  0
    7.9828   -7.5447    1.1134 C   0  0
    8.3898   -8.8354    1.4424 C   0  0
    9.6737   -9.2675    1.0832 C   0  0
   10.5599   -8.4161    0.4105 C   0  0
   10.1360   -7.1296    0.0688 C   0  0
    8.8544   -6.6931    0.4302 C   0  0
    1.5883   -8.8818    0.2406 C   0  0
   11.7924   -8.9562    0.1580 O   0  0
   12.8091   -8.0762   -0.3307 C   0  0
   14.1203   -8.8230   -0.4319 C   0  0
   14.1842  -10.0765   -1.0585 C   0  0
   15.4009  -10.7506   -1.1788 C   0  0
   16.5688  -10.1766   -0.6809 C   0  0
   16.5200   -8.9281   -0.0629 C   0  0
   15.3037   -8.2524    0.0581 C   0  0
    0.5279   -7.7727    0.2891 C   0  0  2  0  0  0
   -0.8614   -8.4185    0.3622 C   0  0
    0.5682   -6.9986   -0.9321 O   0  0
    0.3431   -5.6047   -0.6902 C   0  0
    0.3085   -4.8921   -2.0270 C   0  0
   -1.5555   -8.2885   -0.8007 O   0  0
   -1.3135   -8.9959    1.3396 O   0  0
    2.5308   -7.9309    2.6427 H   0  0
    3.8145   -8.7825   -1.3946 H   0  0
    6.0788   -8.0170   -0.8404 H   0  0
    4.8122   -7.1500    3.1763 H   0  0
    7.7347   -9.4918    2.0080 H   0  0
   10.0054  -10.2671    1.3605 H   0  0
   10.7875   -6.4373   -0.4566 H   0  0
    8.5239   -5.6843    0.1943 H   0  0
    1.5920   -9.3422   -0.7560 H   0  0
    1.3420   -9.6845    0.9479 H   0  0
   12.5464   -7.7084   -1.3300 H   0  0
   12.9212   -7.2287    0.3567 H   0  0
   13.2771  -10.5355   -1.4485 H   0  0
   15.4327  -11.7245   -1.6594 H   0  0
   17.5164  -10.7017   -0.7733 H   0  0
   17.4302   -8.4796    0.3265 H   0  0
   15.2863   -7.2783    0.5418 H   0  0
    0.6440   -7.1228    1.1648 H   0  0
   -0.6096   -5.4661   -0.1675 H   0  0
    1.1571   -5.2071   -0.0744 H   0  0
    0.1407   -3.8199   -1.8935 H   0  0
   -0.4880   -5.2988   -2.6591 H   0  0
    1.2496   -5.0392   -2.5672 H   0  0
   -0.9742   -7.8081   -1.4371 H   0  0
  1  2  2  0
  1 30  1  0
  2  3  1  0
  2 14  1  0
  3  4  2  0
  3 31  1  0
  4  5  1  0
  4 32  1  0
  5  6  2  0
  5  7  1  0
  6  1  1  0
  6 33  1  0
  7  8  1  0
  8  9  2  0
  9 10  1  0
  9 34  1  0
 10 11  2  0
 10 35  1  0
 11 12  1  0
 11 15  1  0
 12 13  2  0
 12 36  1  0
 13  8  1  0
 13 37  1  0
 14 23  1  0
 14 38  1  0
 14 39  1  0
 15 16  1  0
 16 17  1  0
 16 40  1  0
 16 41  1  0
 17 18  2  0
 18 19  1  0
 18 42  1  0
 19 20  2  0
 19 43  1  0
 20 21  1  0
 20 44  1  0
 21 22  2  0
 21 45  1  0
 22 17  1  0
 22 46  1  0
 23 24  1  0
 23 25  1  0
 23 47  1  0
 24 28  1  0
 24 29  2  0
 25 26  1  0
 26 27  1  0
 26 48  1  0
 26 49  1  0
 27 50  1  0
 27 51  1  0
 27 52  1  0
 28 53  1  0
M  END
> <Name>
CHEMBL4072125

> <Clean Energy>
14.6698

> <chembl_id>
CHEMBL4072125

> <chembl_pref_name>
None

> <efficacy>
0.39

> <Forcefield>
MMFF

> <ForcefieldBase>
MMFF

> <ForcefieldFFML>
<?xml version="1.0" encoding="UTF-8"?>
<!DOCTYPE ffml SYSTEM "Ffml.dtd">
<ffml version="1.0">
<forcefield name="MMFF" derivedFrom="MMFF" base="MMFF">
<atomTypes>
<atomType
name="C100"
element="C"
mass="12.011"
annotation=""/>
<atomType
name="O101"
element="O"
mass="16"
annotation=""/>
<atomType
name="H102"
element="H"
mass="1.008"
annotation=""/>
</atomTypes>
<parameters>
</parameters>
</forcefield>
</ffml>

> <Initial Potential Energy>
231.79026

> <Initial RMS Gradient>
40.80675

> <Minimization Criteria>
STEEPD> Minimization exiting with gradient tolerance ( 3.0000000) satisfied.

> <CHARMm Energy>
89.71405

> <Potential Energy>
89.71405

> <RMS Gradient>
0.06021

> <Bond Energy>
6.17284

> <Angle Energy>
14.51963

> <STRBend>
0.62398

> <Dihedral Energy>
8.07086

> <OOPLane>
0.2961

> <Van der Waals Energy>
59.51518

> <Electrostatic Energy>
0.51546

> <Hydrogen Bond Energy>
0

> <Solvation Free Energy>
0

> <HasGasteigerCharges>
true

> <REMARK99>
REMARK  99  MacroMolecule created from Mol2 file
REMARK  99  CHEMBL4072125
REMARK  99  PROTEIN
REMARK  99  GASTEIGER
REMARK  99
REMARK  99

$$$$
CHEMBL5085545
  SciTegic05292516403D

 45 48  0  0  0  0            999 V2000
   10.4472   -7.1420    0.2361 C   0  0
   11.5475   -6.3052    0.9117 C   0  0
   10.7343   -8.0474   -0.5424 O   0  0
    9.1685   -6.6887    0.5239 N   0  0
   12.7346   -7.0811    1.0692 O   0  0
   14.8191   -7.1722    0.0119 C   0  0
   13.8956   -6.4375    0.7561 C   0  0
   14.2066   -5.1538    1.1917 C   0  0
   15.4332   -4.5876    0.8451 C   0  0
   16.3642   -5.3063    0.0773 C   0  0
   17.6061   -4.7557   -0.2653 C   0  0
   18.5349   -5.4920   -1.0112 C   0  0
   18.2208   -6.7824   -1.4370 C   0  0
   16.9869   -7.3418   -1.1043 C   0  0
   16.0539   -6.6178   -0.3452 C   0  0
   19.8295   -4.8877   -1.3113 C   0  0
   22.4202   -4.2614   -0.9333 S   0  0
   23.2307   -5.0107    0.4208 C   0  0
   22.4287   -5.9388    0.9896 N   0  0
   21.1808   -6.1085    0.4762 C   0  0
   20.9594   -5.1421   -0.6403 C   0  0
   20.3997   -6.9462    0.8902 O   0  0
   24.3578   -4.7272    0.7861 O   0  0
    7.9555   -7.2992    0.1317 C   0  0
    7.6926   -8.6774    0.0669 C   0  0
    6.4490   -9.1306   -0.3964 C   0  0
    5.4631   -8.2185   -0.7555 C   0  0
    5.6775   -6.8561   -0.6417 C   0  0
    6.9134   -6.4133   -0.1894 C   0  0
    7.1196   -5.0901   -0.0798 F   0  0
    4.2757   -8.6652   -1.1838 F   0  0
    8.8295  -10.0170    0.7976 Br  0  0
   11.6957   -5.4211    0.2780 H   0  0
   11.2082   -5.9858    1.9032 H   0  0
    9.1099   -5.7180    0.8136 H   0  0
   14.5632   -8.1841   -0.2932 H   0  0
   13.5255   -4.5911    1.8190 H   0  0
   15.6697   -3.5849    1.1950 H   0  0
   17.8603   -3.7508    0.0663 H   0  0
   18.9367   -7.3693   -2.0078 H   0  0
   16.7628   -8.3548   -1.4308 H   0  0
   19.8032   -4.1323   -2.0934 H   0  0
   22.7621   -6.4927    1.7620 H   0  0
    6.2232  -10.1921   -0.4513 H   0  0
    4.8976   -6.1504   -0.9022 H   0  0
  1  2  1  0
  1  3  2  0
  1  4  1  0
  2  5  1  0
  2 33  1  0
  2 34  1  0
  4 24  1  0
  4 35  1  0
  5  7  1  0
  6  7  1  0
  6 15  2  0
  6 36  1  0
  7  8  2  0
  8  9  1  0
  8 37  1  0
  9 10  2  0
  9 38  1  0
 10 11  1  0
 10 15  1  0
 11 12  2  0
 11 39  1  0
 12 13  1  0
 12 16  1  0
 13 14  2  0
 13 40  1  0
 14 15  1  0
 14 41  1  0
 16 21  2  0
 16 42  1  0
 17 18  1  0
 17 21  1  0
 18 19  1  0
 18 23  2  0
 19 20  1  0
 19 43  1  0
 20 21  1  0
 20 22  2  0
 24 25  1  0
 24 29  2  0
 25 26  2  0
 25 32  1  0
 26 27  1  0
 26 44  1  0
 27 28  2  0
 27 31  1  0
 28 29  1  0
 28 45  1  0
 29 30  1  0
M  END
> <Name>
CHEMBL5085545

> <Clean Energy>
35.932499

> <chembl_id>
CHEMBL5085545

> <chembl_pref_name>
None

> <efficacy>
0.224

> <Forcefield>
MMFF

> <ForcefieldBase>
MMFF

> <ForcefieldFFML>
<?xml version="1.0" encoding="UTF-8"?>
<!DOCTYPE ffml SYSTEM "Ffml.dtd">
<ffml version="1.0">
<forcefield name="MMFF" derivedFrom="MMFF" base="MMFF">
<atomTypes>
<atomType
name="C100"
element="C"
mass="12.011"
annotation=""/>
<atomType
name="O101"
element="O"
mass="16"
annotation=""/>
<atomType
name="N102"
element="N"
mass="14.007"
annotation=""/>
<atomType
name="S103"
element="S"
mass="32.066"
annotation=""/>
<atomType
name="F104"
element="F"
mass="18.998"
annotation=""/>
<atomType
name="Br105"
element="Br"
mass="79.904"
annotation=""/>
<atomType
name="H106"
element="H"
mass="1.008"
annotation=""/>
</atomTypes>
<parameters>
</parameters>
</forcefield>
</ffml>

> <Initial Potential Energy>
97.95269

> <Initial RMS Gradient>
34.26029

> <Minimization Criteria>
CONJUG> Minimization exiting with gradient tolerance ( 0.0100000) satisfied.

> <CHARMm Energy>
17.15215

> <Potential Energy>
17.15215

> <RMS Gradient>
0.00912

> <Bond Energy>
5.63376

> <Angle Energy>
17.2977

> <STRBend>
0.13175

> <Dihedral Energy>
21.79178

> <OOPLane>
0.58592

> <Van der Waals Energy>
54.13717

> <Electrostatic Energy>
-82.42594

> <Hydrogen Bond Energy>
0

> <Solvation Free Energy>
0

> <HasGasteigerCharges>
true

> <REMARK99>
REMARK  99  MacroMolecule created from Mol2 file
REMARK  99  CHEMBL5085545
REMARK  99  PROTEIN
REMARK  99  GASTEIGER
REMARK  99
REMARK  99

$$$$
CHEMBL480298
  SciTegic05292516403D

 67 71  0  0  0  0            999 V2000
    2.6832   -7.0502    0.0211 C   0  0
    3.4167   -8.2668   -0.4223 C   0  0
    4.8046   -8.1473   -0.5784 C   0  0
    5.5685   -9.2554   -0.9398 C   0  0
    4.9435  -10.4736   -1.2045 C   0  0
    3.5585  -10.6030   -1.0515 C   0  0
    2.7938   -9.5032   -0.6484 C   0  0
    3.3002   -6.1377    0.5647 O   0  0
    1.3351   -6.9987   -0.2446 N   0  0
    0.5403   -5.8486    0.1394 C   0  0
   -0.9480   -6.1771    0.1464 C   0  0
   -1.7829   -4.9746    0.5542 C   0  0
    6.9346   -9.1870   -1.1035 O   0  0
    7.6739   -8.5803   -0.1067 C   0  0
    8.7773   -7.8191   -0.5066 C   0  0
    9.6078   -7.2087    0.4491 C   0  0
    9.3108   -7.3854    1.8115 C   0  0
    8.2186   -8.1534    2.2113 C   0  0
    7.4067   -8.7573    1.2535 C   0  0
   13.0685   -4.9231   -0.5717 N   0  0
   13.0735   -6.2709   -0.6126 C   0  0
   11.9959   -7.0784   -0.2816 C   0  0
   10.7936   -6.4183    0.0562 C   0  0
   10.7582   -4.9855    0.0755 C   0  0
    9.6024   -4.2296    0.3871 C   0  0
    9.6334   -2.8386    0.4266 C   0  0
   10.8238   -2.1713    0.1698 C   0  0
   11.9870   -2.8928   -0.1469 C   0  0
   11.9508   -4.2845   -0.2223 C   0  0
   13.2933   -2.1808   -0.3840 C   0  0
   13.8048   -2.3383   -1.6409 F   0  0
   13.2008   -0.8209   -0.2247 F   0  0
   14.2896   -2.5463    0.4786 F   0  0
   12.1093   -8.5924   -0.3223 C   0  0
   13.5196   -9.1504   -0.2417 C   0  0
   14.1964   -9.1954    0.9882 C   0  0
   15.5183   -9.6378    1.0541 C   0  0
   16.1764  -10.0365   -0.1074 C   0  0
   15.5137  -10.0080   -1.3332 C   0  0
   14.1906   -9.5686   -1.4014 C   0  0
    5.2923   -7.1886   -0.4073 H   0  0
    5.5405  -11.3282   -1.5122 H   0  0
    3.0790  -11.5630   -1.2343 H   0  0
    1.7270   -9.6376   -0.4958 H   0  0
    0.9014   -7.6962   -0.8327 H   0  0
    0.8649   -5.5086    1.1295 H   0  0
    0.7576   -5.0488   -0.5773 H   0  0
   -1.2600   -6.5152   -0.8491 H   0  0
   -1.1429   -7.0068    0.8365 H   0  0
   -2.8469   -5.2316    0.5472 H   0  0
   -1.6309   -4.1389   -0.1362 H   0  0
   -1.5213   -4.6393    1.5629 H   0  0
    8.9883   -7.7028   -1.5672 H   0  0
    9.9417   -6.9260    2.5709 H   0  0
    8.0038   -8.2860    3.2685 H   0  0
    6.5685   -9.3613    1.5827 H   0  0
   14.0296   -6.6852   -0.9208 H   0  0
    8.6560   -4.7232    0.6030 H   0  0
    8.7341   -2.2764    0.6689 H   0  0
   10.8388   -1.0840    0.2193 H   0  0
   11.5517   -9.0359    0.5119 H   0  0
   11.6314   -8.9496   -1.2434 H   0  0
   13.6973   -8.8668    1.8980 H   0  0
   16.0412   -9.6636    2.0074 H   0  0
   17.2109  -10.3671   -0.0578 H   0  0
   16.0334  -10.3230   -2.2354 H   0  0
   13.6901   -9.5351   -2.3669 H   0  0
  1  2  1  0
  1  8  2  0
  1  9  1  0
  2  3  1  0
  2  7  2  0
  3  4  2  0
  3 41  1  0
  4  5  1  0
  4 13  1  0
  5  6  2  0
  5 42  1  0
  6  7  1  0
  6 43  1  0
  7 44  1  0
  9 10  1  0
  9 45  1  0
 10 11  1  0
 10 46  1  0
 10 47  1  0
 11 12  1  0
 11 48  1  0
 11 49  1  0
 12 50  1  0
 12 51  1  0
 12 52  1  0
 13 14  1  0
 14 15  1  0
 14 19  2  0
 15 16  2  0
 15 53  1  0
 16 17  1  0
 16 23  1  0
 17 18  2  0
 17 54  1  0
 18 19  1  0
 18 55  1  0
 19 56  1  0
 20 21  2  0
 20 29  1  0
 21 22  1  0
 21 57  1  0
 22 23  2  0
 22 34  1  0
 23 24  1  0
 24 25  2  0
 24 29  1  0
 25 26  1  0
 25 58  1  0
 26 27  2  0
 26 59  1  0
 27 28  1  0
 27 60  1  0
 28 29  2  0
 28 30  1  0
 30 31  1  0
 30 32  1  0
 30 33  1  0
 34 35  1  0
 34 61  1  0
 34 62  1  0
 35 36  1  0
 35 40  2  0
 36 37  2  0
 36 63  1  0
 37 38  1  0
 37 64  1  0
 38 39  2  0
 38 65  1  0
 39 40  1  0
 39 66  1  0
 40 67  1  0
M  END
> <Name>
CHEMBL480298

> <Clean Energy>
45.675098

> <chembl_id>
CHEMBL480298

> <chembl_pref_name>
None

> <efficacy>
0.07

> <Forcefield>
MMFF

> <ForcefieldBase>
MMFF

> <ForcefieldFFML>
<?xml version="1.0" encoding="UTF-8"?>
<!DOCTYPE ffml SYSTEM "Ffml.dtd">
<ffml version="1.0">
<forcefield name="MMFF" derivedFrom="MMFF" base="MMFF">
<atomTypes>
<atomType
name="C100"
element="C"
mass="12.011"
annotation=""/>
<atomType
name="O101"
element="O"
mass="16"
annotation=""/>
<atomType
name="N102"
element="N"
mass="14.007"
annotation=""/>
<atomType
name="F103"
element="F"
mass="18.998"
annotation=""/>
<atomType
name="H104"
element="H"
mass="1.008"
annotation=""/>
</atomTypes>
<parameters>
</parameters>
</forcefield>
</ffml>

> <Initial Potential Energy>
451.87575

> <Initial RMS Gradient>
71.99431

> <Minimization Criteria>
STEEPD> Minimization exiting with gradient tolerance ( 3.0000000) satisfied.

> <CHARMm Energy>
82.9285

> <Potential Energy>
82.9285

> <RMS Gradient>
0.05485

> <Bond Energy>
10.44031

> <Angle Energy>
10.72301

> <STRBend>
0.69801

> <Dihedral Energy>
10.20696

> <OOPLane>
0.18937

> <Van der Waals Energy>
90.60946

> <Electrostatic Energy>
-39.93862

> <Hydrogen Bond Energy>
0

> <Solvation Free Energy>
0

> <HasGasteigerCharges>
true

> <REMARK99>
REMARK  99  MacroMolecule created from Mol2 file
REMARK  99  CHEMBL480298
REMARK  99  PROTEIN
REMARK  99  GASTEIGER
REMARK  99
REMARK  99

$$$$
CHEMBL183667
  SciTegic05292516403D

 41 42  0  0  0  0            999 V2000
    9.7227   -2.1588    0.1497 C   0  0
    9.3351   -3.5602    0.4418 C   0  0
    8.7921   -1.3031   -0.3134 C   0  0
    7.0901   -3.0155   -0.2886 C   0  0
    7.4432   -1.7548   -0.5670 C   0  0
    8.0322   -3.9265    0.2406 O   0  0
   11.0878   -1.7975    0.3741 C   0  0
   12.1831   -1.4578    0.5653 N   0  0
    5.7427   -3.5761   -0.5301 C   0  0
   10.1708   -4.3658    0.8473 O   0  0
    9.1204    0.3585   -0.7392 S   0  0
    4.5880   -2.7788   -0.4835 C   0  0
    5.5816   -4.9439   -0.7979 C   0  0
   -1.2711   -5.3635    0.6836 N   0  0
    3.1716   -4.6936   -0.9350 C   0  0
    4.3101   -5.4938   -1.0065 C   0  0
    3.3161   -3.3284   -0.6971 C   0  0
    1.9775   -5.3372   -1.1243 O   0  0
    0.8506   -4.7354   -0.4757 C   0  0
   -0.1350   -5.8487   -0.1193 C   0  0
    9.2392    1.1248    0.8977 C   0  0
   -2.2250   -4.5987   -0.1287 C   0  0
   -1.9699   -6.4996    1.2974 C   0  0
    6.7445   -1.0537   -1.0151 H   0  0
    4.6498   -1.7149   -0.2676 H   0  0
    6.4443   -5.6055   -0.8493 H   0  0
    4.2105   -6.5578   -1.2074 H   0  0
    2.4558   -2.6665   -0.6694 H   0  0
    1.1437   -4.2294    0.4535 H   0  0
    0.4030   -4.0096   -1.1627 H   0  0
    0.4257   -6.5998    0.4544 H   0  0
   -0.4710   -6.3649   -1.0285 H   0  0
    9.3746    2.2031    0.7785 H   0  0
   10.0904    0.7306    1.4578 H   0  0
    8.3215    0.9512    1.4667 H   0  0
   -3.0641   -4.2554    0.4873 H   0  0
   -2.6275   -5.1891   -0.9598 H   0  0
   -1.7590   -3.6968   -0.5378 H   0  0
   -2.7994   -6.1500    1.9224 H   0  0
   -1.2951   -7.0540    1.9592 H   0  0
   -2.3682   -7.1936    0.5483 H   0  0
  2  1  1  0
  3  1  2  0
  4  5  2  0
  5  3  1  0
  5 24  1  0
  6  2  1  0
  6  4  1  0
  7  1  1  0
  8  7  3  0
  9  4  1  0
 10  2  2  0
 11  3  1  0
 12  9  2  0
 12 25  1  0
 13  9  1  0
 13 26  1  0
 14 20  1  0
 15 16  1  0
 16 13  2  0
 16 27  1  0
 17 12  1  0
 17 15  2  0
 17 28  1  0
 18 15  1  0
 19 18  1  0
 19 29  1  0
 19 30  1  0
 20 19  1  0
 20 31  1  0
 20 32  1  0
 21 11  1  0
 21 33  1  0
 21 34  1  0
 21 35  1  0
 22 14  1  0
 22 36  1  0
 22 37  1  0
 22 38  1  0
 23 14  1  0
 23 39  1  0
 23 40  1  0
 23 41  1  0
M  END
> <Name>
CHEMBL183667

> <Clean Energy>
40.774101

> <chembl_id>
CHEMBL183667

> <chembl_pref_name>
None

> <efficacy>
0.07

> <Forcefield>
MMFF

> <ForcefieldBase>
MMFF

> <ForcefieldFFML>
<?xml version="1.0" encoding="UTF-8"?>
<!DOCTYPE ffml SYSTEM "Ffml.dtd">
<ffml version="1.0">
<forcefield name="MMFF" derivedFrom="MMFF" base="MMFF">
<atomTypes>
<atomType
name="C100"
element="C"
mass="12.011"
annotation=""/>
<atomType
name="O101"
element="O"
mass="16"
annotation=""/>
<atomType
name="N102"
element="N"
mass="14.007"
annotation=""/>
<atomType
name="S103"
element="S"
mass="32.066"
annotation=""/>
<atomType
name="H104"
element="H"
mass="1.008"
annotation=""/>
</atomTypes>
<parameters>
</parameters>
</forcefield>
</ffml>

> <Initial Potential Energy>
166.68629

> <Initial RMS Gradient>
23.54542

> <Minimization Criteria>
CONJUG> Minimization exiting with gradient tolerance ( 0.0100000) satisfied.

> <CHARMm Energy>
44.67983

> <Potential Energy>
44.67983

> <RMS Gradient>
0.00995

> <Bond Energy>
3.80567

> <Angle Energy>
19.00201

> <STRBend>
0.3219

> <Dihedral Energy>
2.59951

> <OOPLane>
0.02336

> <Van der Waals Energy>
45.22197

> <Electrostatic Energy>
-26.29459

> <Hydrogen Bond Energy>
0

> <Solvation Free Energy>
0

> <HasGasteigerCharges>
true

> <REMARK99>
REMARK  99  MacroMolecule created from Mol2 file
REMARK  99  CHEMBL183667
REMARK  99  PROTEIN
REMARK  99  GASTEIGER
REMARK  99
REMARK  99

$$$$
CHEMBL1075894
  SciTegic05292516403D

 68 72  0  0  0  0            999 V2000
    3.5899  -12.5459   -0.6079 C   0  0
    4.2036  -13.0367   -1.7599 C   0  0
    5.3185  -13.8665   -1.6498 C   0  0
    5.8340  -14.2048   -0.3963 C   0  0
    5.2410  -13.6713    0.7510 C   0  0
    4.1267  -12.8207    0.6560 C   0  0
    3.5231  -12.2362    1.8990 C   0  0
    2.4717  -11.7537   -0.7155 O   0  0
    1.3276  -12.5663   -0.9599 C   0  0
   -0.0034  -11.8228   -0.9017 C   0  0
   -1.0655  -12.6785   -0.9873 O   0  0
   -0.1755  -10.6165   -0.8124 O   0  0
    6.9379  -15.0143   -0.4315 O   0  0
    7.2901  -15.6968    0.7723 C   0  0
    8.6485  -16.2574    0.5561 C   0  0
    8.7896  -17.6164    0.6390 O   0  0
   10.1411  -17.8359    0.4717 C   0  0
   10.7322  -16.6002    0.2634 C   0  0
    9.7790  -15.6116    0.3607 N   0  0
   12.1156  -16.2664   -0.0024 C   0  0
   12.9773  -17.0598   -0.7478 C   0  0
   13.8925  -14.6141    0.2293 N   0  0
   12.6258  -15.0548    0.4450 C   0  0
   10.5612  -19.2229    0.5992 C   0  0
    9.7247  -20.2695    0.1800 C   0  0
   10.1247  -21.6058    0.2926 C   0  0
   11.3750  -21.9102    0.8252 C   0  0
   12.2105  -20.8781    1.2545 C   0  0
   11.8010  -19.5475    1.1596 C   0  0
   11.9102  -23.1527    0.9673 O   0  0
   11.0326  -24.2589    0.8861 C   0  0
   11.7115  -25.3789    1.2342 F   0  0
    9.9852  -24.1440    1.7366 F   0  0
   10.5602  -24.4451   -0.3680 F   0  0
   14.7426  -15.4173   -0.4525 C   0  0
   14.2948  -16.6368   -0.9628 C   0  0
   16.0347  -14.9644   -0.6794 N   0  0
   17.1869  -15.8736   -0.6220 C   0  0
   18.4307  -15.2164   -1.2564 C   0  0
   18.7174  -13.9252   -0.6945 O   0  0
   17.5946  -13.0551   -0.8959 C   0  0
   16.3243  -13.5926   -0.2222 C   0  0
    3.8291  -12.7723   -2.7435 H   0  0
    5.7964  -14.2542   -2.5472 H   0  0
    5.6459  -13.8742    1.7368 H   0  0
    3.4049  -11.1528    1.7940 H   0  0
    4.1565  -12.4106    2.7751 H   0  0
    2.5456  -12.6890    2.0920 H   0  0
    1.3960  -13.0057   -1.9628 H   0  0
    1.2772  -13.3635   -0.2061 H   0  0
   -0.7725  -13.6114   -1.0297 H   0  0
    7.3643  -15.0144    1.6246 H   0  0
    6.5592  -16.4848    0.9821 H   0  0
   12.6500  -17.9956   -1.1920 H   0  0
   12.0082  -14.3693    1.0180 H   0  0
    8.7479  -20.0556   -0.2488 H   0  0
    9.4337  -22.3735   -0.0512 H   0  0
   13.1848  -21.1078    1.6809 H   0  0
   12.4682  -18.7759    1.5377 H   0  0
   14.9404  -17.2558   -1.5735 H   0  0
   17.3969  -16.1043    0.4296 H   0  0
   17.0028  -16.8163   -1.1456 H   0  0
   19.3068  -15.8515   -1.0907 H   0  0
   18.3004  -15.1086   -2.3402 H   0  0
   17.8526  -12.0789   -0.4730 H   0  0
   17.4390  -12.9184   -1.9731 H   0  0
   15.5083  -12.9014   -0.4660 H   0  0
   16.4641  -13.6014    0.8661 H   0  0
  1  2  2  0
  1  8  1  0
  2  3  1  0
  2 43  1  0
  3  4  2  0
  3 44  1  0
  4  5  1  0
  4 13  1  0
  5  6  2  0
  5 45  1  0
  6  1  1  0
  6  7  1  0
  7 46  1  0
  7 47  1  0
  7 48  1  0
  8  9  1  0
  9 10  1  0
  9 49  1  0
  9 50  1  0
 10 11  1  0
 10 12  2  0
 11 51  1  0
 13 14  1  0
 14 15  1  0
 14 52  1  0
 14 53  1  0
 15 16  1  0
 16 17  1  0
 17 18  2  0
 17 24  1  0
 18 19  1  0
 18 20  1  0
 19 15  2  0
 20 21  2  0
 21 36  1  0
 21 54  1  0
 22 23  2  0
 23 20  1  0
 23 55  1  0
 24 25  2  0
 25 26  1  0
 25 56  1  0
 26 27  2  0
 26 57  1  0
 27 28  1  0
 27 30  1  0
 28 29  2  0
 28 58  1  0
 29 24  1  0
 29 59  1  0
 30 31  1  0
 31 32  1  0
 31 33  1  0
 31 34  1  0
 35 22  1  0
 35 36  2  0
 35 37  1  0
 36 60  1  0
 37 38  1  0
 37 42  1  0
 38 39  1  0
 38 61  1  0
 38 62  1  0
 39 40  1  0
 39 63  1  0
 39 64  1  0
 40 41  1  0
 41 42  1  0
 41 65  1  0
 41 66  1  0
 42 67  1  0
 42 68  1  0
M  END
> <Name>
CHEMBL1075894

> <Clean Energy>
54.0798

> <chembl_id>
CHEMBL1075894

> <chembl_pref_name>
None

> <efficacy>
0.2

> <Forcefield>
MMFF

> <ForcefieldBase>
MMFF

> <ForcefieldFFML>
<?xml version="1.0" encoding="UTF-8"?>
<!DOCTYPE ffml SYSTEM "Ffml.dtd">
<ffml version="1.0">
<forcefield name="MMFF" derivedFrom="MMFF" base="MMFF">
<atomTypes>
<atomType
name="C100"
element="C"
mass="12.011"
annotation=""/>
<atomType
name="O101"
element="O"
mass="16"
annotation=""/>
<atomType
name="N102"
element="N"
mass="14.007"
annotation=""/>
<atomType
name="F103"
element="F"
mass="18.998"
annotation=""/>
<atomType
name="H104"
element="H"
mass="1.008"
annotation=""/>
</atomTypes>
<parameters>
</parameters>
</forcefield>
</ffml>

> <Initial Potential Energy>
1002.65865

> <Initial RMS Gradient>
490.78731

> <Minimization Criteria>
STEEPD> Minimization exiting with gradient tolerance ( 3.0000000) satisfied.

> <CHARMm Energy>
127.08989

> <Potential Energy>
127.08989

> <RMS Gradient>
0.03695

> <Bond Energy>
6.27905

> <Angle Energy>
30.86182

> <STRBend>
0.20865

> <Dihedral Energy>
12.43899

> <OOPLane>
1.78149

> <Van der Waals Energy>
76.79876

> <Electrostatic Energy>
-1.27888

> <Hydrogen Bond Energy>
0

> <Solvation Free Energy>
0

> <HasGasteigerCharges>
true

> <REMARK99>
REMARK  99  MacroMolecule created from Mol2 file
REMARK  99  CHEMBL1075894
REMARK  99  PROTEIN
REMARK  99  GASTEIGER
REMARK  99
REMARK  99

$$$$
CHEMBL5087861
  SciTegic05292516403D

 51 54  0  0  0  0            999 V2000
   20.4837   -8.2881    1.2708 F   0  0
   20.4308   -9.5888    1.6715 C   0  0
   21.5286   -9.7955    2.4529 F   0  0
   19.3011  -11.4648    0.4277 C   0  0
   19.1914  -12.3866   -0.6141 C   0  0
   20.1456  -12.3616   -1.6271 C   0  0
   21.2226  -11.4753   -1.5704 C   0  0
   21.3684  -10.5767   -0.4984 C   0  0
   20.3778  -10.5558    0.5079 C   0  0
   19.3547   -9.6670    2.5079 F   0  0
   22.5781   -9.6694   -0.4874 C   0  0
   23.7992  -10.4423   -0.4634 N   0  0
   25.0201   -9.8411   -0.6701 C   0  0
   26.2022  -10.7441   -0.6306 C   0  0
   25.1575   -8.6362   -0.8455 O   0  0
   26.1427  -12.0523   -1.1231 C   0  0
   27.2606  -12.8959   -1.0699 C   0  0
   27.3954  -10.2427   -0.0958 C   0  0
   28.5238  -11.0823   -0.0159 C   0  0
   28.4413  -12.3923   -0.5002 C   0  0
   29.6759  -12.9801   -0.2765 N   0  0
   30.5239  -12.0739    0.3136 C   0  0
   29.8377  -10.8963    0.4879 C   0  0
   30.0659  -14.3512   -0.6189 C   0  0
   29.3317  -15.4145    0.1718 C   0  0
   28.8009  -15.1945    1.4545 C   0  0
   28.1503  -16.2185    2.1515 C   0  0
   28.0499  -17.4885    1.5906 C   0  0
   28.5903  -17.7222    0.3330 C   0  0
   29.2207  -16.7026   -0.3766 C   0  0
   28.5142  -18.9496   -0.2020 F   0  0
   18.1010  -13.2349   -0.6944 N   0  0
   18.5354  -11.4523    1.2017 H   0  0
   20.0616  -13.0355   -2.4756 H   0  0
   21.9556  -11.4876   -2.3762 H   0  0
   22.5701   -9.0339   -1.3812 H   0  0
   22.6030   -9.0036    0.3788 H   0  0
   23.7557  -11.4101   -0.1741 H   0  0
   25.2306  -12.4306   -1.5779 H   0  0
   27.2021  -13.9107   -1.4515 H   0  0
   27.4536   -9.2192    0.2683 H   0  0
   31.5437  -12.3393    0.5633 H   0  0
   30.2284   -9.9923    0.9364 H   0  0
   29.8706  -14.4585   -1.6925 H   0  0
   31.1439  -14.4505   -0.4496 H   0  0
   28.8557  -14.2118    1.9233 H   0  0
   27.7184  -16.0131    3.1288 H   0  0
   27.5728  -18.3030    2.1261 H   0  0
   29.6257  -16.9280   -1.3586 H   0  0
   17.4693  -13.3221    0.0895 H   0  0
   18.1110  -13.9861   -1.3729 H   0  0
  2  1  1  0
  2 10  1  0
  3  2  1  0
  4  5  2  0
  4 33  1  0
  5  6  1  0
  5 32  1  0
  6  7  2  0
  6 34  1  0
  7  8  1  0
  7 35  1  0
  8  9  2  0
  8 11  1  0
  9  2  1  0
  9  4  1  0
 11 12  1  0
 11 36  1  0
 11 37  1  0
 12 13  1  0
 12 38  1  0
 13 14  1  0
 13 15  2  0
 14 16  2  0
 16 17  1  0
 16 39  1  0
 17 20  2  0
 17 40  1  0
 18 14  1  0
 18 41  1  0
 19 18  2  0
 19 20  1  0
 20 21  1  0
 21 22  1  0
 21 24  1  0
 22 23  2  0
 22 42  1  0
 23 19  1  0
 23 43  1  0
 24 25  1  0
 24 44  1  0
 24 45  1  0
 25 26  2  0
 26 27  1  0
 26 46  1  0
 27 28  2  0
 27 47  1  0
 28 29  1  0
 28 48  1  0
 29 30  2  0
 29 31  1  0
 30 25  1  0
 30 49  1  0
 32 50  1  0
 32 51  1  0
M  END
> <Name>
CHEMBL5087861

> <Clean Energy>
47.131401

> <chembl_id>
CHEMBL5087861

> <chembl_pref_name>
None

> <efficacy>
0.180436847

> <Forcefield>
MMFF

> <ForcefieldBase>
MMFF

> <ForcefieldFFML>
<?xml version="1.0" encoding="UTF-8"?>
<!DOCTYPE ffml SYSTEM "Ffml.dtd">
<ffml version="1.0">
<forcefield name="MMFF" derivedFrom="MMFF" base="MMFF">
<atomTypes>
<atomType
name="F100"
element="F"
mass="18.998"
annotation=""/>
<atomType
name="C101"
element="C"
mass="12.011"
annotation=""/>
<atomType
name="N102"
element="N"
mass="14.007"
annotation=""/>
<atomType
name="O103"
element="O"
mass="16"
annotation=""/>
<atomType
name="H104"
element="H"
mass="1.008"
annotation=""/>
</atomTypes>
<parameters>
</parameters>
</forcefield>
</ffml>

> <Initial Potential Energy>
433.65104

> <Initial RMS Gradient>
211.87873

> <Minimization Criteria>
CONJUG> Minimization exiting with gradient tolerance ( 0.0100000) satisfied.

> <CHARMm Energy>
52.48308

> <Potential Energy>
52.48308

> <RMS Gradient>
0.00977

> <Bond Energy>
6.88793

> <Angle Energy>
8.82356

> <STRBend>
-0.13981

> <Dihedral Energy>
9.56133

> <OOPLane>
0.80009

> <Van der Waals Energy>
55.45429

> <Electrostatic Energy>
-28.90432

> <Hydrogen Bond Energy>
0

> <Solvation Free Energy>
0

> <HasGasteigerCharges>
true

> <REMARK99>
REMARK  99  MacroMolecule created from Mol2 file
REMARK  99  CHEMBL5087861
REMARK  99  PROTEIN
REMARK  99  GASTEIGER
REMARK  99
REMARK  99

$$$$
CHEMBL470145
  SciTegic05292516403D

 43 45  0  0  0  0            999 V2000
    7.0963    2.8243    0.4079 C   0  0
    7.1876    1.9804   -0.6955 C   0  0
    8.4339    1.6260   -1.2069 C   0  0
    9.5998    2.1224   -0.6146 C   0  0
    9.5171    2.9783    0.4836 C   0  0
    8.2623    3.3143    1.0016 C   0  0
    5.7577    1.3630   -1.4240 Cl  0  0
   10.5852    3.4925    1.1642 O   0  0
   11.7670    3.8199    0.4032 C   0  0  1  0  0  0
   12.0591    5.3027    0.6622 C   0  0
   12.9556    2.9963    0.9194 C   0  0
   11.2154    5.8754    1.5597 O   0  0
   12.9616    5.9352    0.1305 O   0  0
   13.0365    1.6116    0.3141 C   0  0
   12.5485    0.4887    1.0017 C   0  0
   12.6302   -0.7892    0.4338 C   0  0
   13.2214   -0.9533   -0.8205 C   0  0
   13.7003    0.1582   -1.5154 C   0  0
   13.6081    1.4328   -0.9535 C   0  0
   12.1767   -1.8334    1.2139 O   0  0
   11.6765   -2.9496    0.5831 C   0  0
   10.5852   -2.8775   -0.2824 C   0  0
   10.0830   -4.0451   -0.8631 C   0  0
   10.6562   -5.2837   -0.5636 C   0  0
   11.7322   -5.3561    0.3244 C   0  0
   12.2383   -4.1878    0.9027 C   0  0
    6.1260    3.1038    0.8116 H   0  0
    8.5080    0.9569   -2.0605 H   0  0
   10.5520    1.7994   -1.0216 H   0  0
    8.1805    3.9671    1.8680 H   0  0
   11.6149    3.7312   -0.6788 H   0  0
   13.9051    3.5057    0.7081 H   0  0
   12.9036    2.9059    2.0127 H   0  0
   10.5708    5.1990    1.8652 H   0  0
   12.1044    0.5995    1.9888 H   0  0
   13.3322   -1.9398   -1.2623 H   0  0
   14.1625    0.0272   -2.4910 H   0  0
   14.0031    2.2835   -1.5065 H   0  0
   10.1206   -1.9206   -0.5025 H   0  0
    9.2398   -3.9694   -1.5433 H   0  0
   10.2650   -6.1971   -1.0127 H   0  0
   12.1696   -6.3252    0.5643 H   0  0
   13.0707   -4.2309    1.5991 H   0  0
  1  2  2  0
  1 27  1  0
  2  3  1  0
  2  7  1  0
  3  4  2  0
  3 28  1  0
  4  5  1  0
  4 29  1  0
  5  6  2  0
  5  8  1  0
  6  1  1  0
  6 30  1  0
  8  9  1  0
  9 10  1  0
  9 11  1  0
  9 31  1  0
 10 12  1  0
 10 13  2  0
 11 14  1  0
 11 32  1  0
 11 33  1  0
 12 34  1  0
 14 15  2  0
 15 16  1  0
 15 35  1  0
 16 17  2  0
 16 20  1  0
 17 18  1  0
 17 36  1  0
 18 19  2  0
 18 37  1  0
 19 14  1  0
 19 38  1  0
 20 21  1  0
 21 22  2  0
 22 23  1  0
 22 39  1  0
 23 24  2  0
 23 40  1  0
 24 25  1  0
 24 41  1  0
 25 26  2  0
 25 42  1  0
 26 21  1  0
 26 43  1  0
M  END
> <Name>
CHEMBL470145

> <Clean Energy>
26.332001

> <chembl_id>
CHEMBL470145

> <chembl_pref_name>
None

> <efficacy>
0.42

> <Forcefield>
MMFF

> <ForcefieldBase>
MMFF

> <ForcefieldFFML>
<?xml version="1.0" encoding="UTF-8"?>
<!DOCTYPE ffml SYSTEM "Ffml.dtd">
<ffml version="1.0">
<forcefield name="MMFF" derivedFrom="MMFF" base="MMFF">
<atomTypes>
<atomType
name="C100"
element="C"
mass="12.011"
annotation=""/>
<atomType
name="Cl101"
element="Cl"
mass="35.453"
annotation=""/>
<atomType
name="O102"
element="O"
mass="16"
annotation=""/>
<atomType
name="H103"
element="H"
mass="1.008"
annotation=""/>
</atomTypes>
<parameters>
</parameters>
</forcefield>
</ffml>

> <Initial Potential Energy>
203.83152

> <Initial RMS Gradient>
39.69964

> <Minimization Criteria>
CONJUG> Minimization exiting with gradient tolerance ( 0.0100000) satisfied.

> <CHARMm Energy>
68.52

> <Potential Energy>
68.52

> <RMS Gradient>
0.00937

> <Bond Energy>
5.09143

> <Angle Energy>
12.78618

> <STRBend>
0.58788

> <Dihedral Energy>
8.83395

> <OOPLane>
0.10649

> <Van der Waals Energy>
54.71336

> <Electrostatic Energy>
-13.5993

> <Hydrogen Bond Energy>
0

> <Solvation Free Energy>
0

> <HasGasteigerCharges>
true

> <REMARK99>
REMARK  99  MacroMolecule created from Mol2 file
REMARK  99  CHEMBL470145
REMARK  99  PROTEIN
REMARK  99  GASTEIGER
REMARK  99
REMARK  99

$$$$
CHEMBL1641718
  SciTegic05292516403D

 49 51  0  0  0  0            999 V2000
    4.7752  -26.6486    0.5857 C   0  0
    4.6791  -27.9529    0.0840 C   0  0
    5.8131  -28.5603   -0.4698 C   0  0
    7.0316  -27.8791   -0.5054 C   0  0
    7.1205  -26.5734   -0.0093 C   0  0
    5.9927  -25.9641    0.5512 C   0  0
    8.4390  -25.8916   -0.0465 C   0  0
    9.4392  -26.5637    0.2101 O   0  0
    8.5412  -24.4737   -0.3888 C   0  0
    9.6503  -23.6764   -0.1261 N   0  0
    9.4218  -22.4032   -0.5913 C   0  0
    8.1846  -22.3689   -1.1796 C   0  0
    7.6352  -23.6639   -1.0624 C   0  0
   10.8716  -24.1597    0.5295 C   0  0
   11.9100  -23.1088    0.7943 C   0  0
   13.0772  -23.0590    0.1343 C   0  0
   14.1287  -22.0738    0.3954 C   0  0
   15.4572  -22.5052    0.3489 C   0  0
   16.4888  -21.5955    0.5566 C   0  0
   16.2215  -20.2595    0.8379 C   0  0
   14.9006  -19.8182    0.8699 C   0  0
   13.8578  -20.7209    0.6421 C   0  0
   17.7815  -22.0338    0.5577 O   0  0
    3.3627  -28.6734    0.0953 C   0  0
   18.2810  -22.0998   -0.7890 C   0  0
   19.7415  -22.4857   -0.7156 C   0  0
   20.2025  -22.6432    0.5547 O   0  0
   20.4724  -22.6128   -1.6889 O   0  0
    3.9022  -26.1614    1.0158 H   0  0
    5.7541  -29.5709   -0.8701 H   0  0
    7.9129  -28.3635   -0.9215 H   0  0
    6.0510  -24.9653    0.9763 H   0  0
   10.1712  -21.6269   -0.4965 H   0  0
    7.7298  -21.5091   -1.6549 H   0  0
    6.6741  -23.9761   -1.4510 H   0  0
   10.5673  -24.6030    1.4842 H   0  0
   11.2778  -24.9441   -0.1194 H   0  0
   11.6849  -22.3967    1.5843 H   0  0
   13.3042  -23.7977   -0.6326 H   0  0
   15.6853  -23.5527    0.1690 H   0  0
   17.0340  -19.5627    1.0279 H   0  0
   14.6813  -18.7729    1.0735 H   0  0
   12.8319  -20.3592    0.6573 H   0  0
    3.5102  -29.7564    0.1617 H   0  0
    2.8052  -28.4478   -0.8190 H   0  0
    2.7615  -28.3744    0.9603 H   0  0
   17.7513  -22.8731   -1.3553 H   0  0
   18.2104  -21.1192   -1.2726 H   0  0
   19.4283  -22.5454    1.1610 H   0  0
  1  2  2  0
  1 29  1  0
  2  3  1  0
  2 24  1  0
  3  4  2  0
  3 30  1  0
  4  5  1  0
  4 31  1  0
  5  6  2  0
  5  7  1  0
  6  1  1  0
  6 32  1  0
  7  8  2  0
  7  9  1  0
  9 10  1  0
 10 11  1  0
 10 14  1  0
 11 12  2  0
 11 33  1  0
 12 13  1  0
 12 34  1  0
 13  9  2  0
 13 35  1  0
 14 15  1  0
 14 36  1  0
 14 37  1  0
 15 16  2  0
 15 38  1  0
 16 17  1  0
 16 39  1  0
 17 18  2  0
 18 19  1  0
 18 40  1  0
 19 20  2  0
 19 23  1  0
 20 21  1  0
 20 41  1  0
 21 22  2  0
 21 42  1  0
 22 17  1  0
 22 43  1  0
 23 25  1  0
 24 44  1  0
 24 45  1  0
 24 46  1  0
 25 26  1  0
 25 47  1  0
 25 48  1  0
 26 27  1  0
 26 28  2  0
 27 49  1  0
M  END
> <Name>
CHEMBL1641718

> <Clean Energy>
19.3297

> <chembl_id>
CHEMBL1641718

> <chembl_pref_name>
None

> <efficacy>
0.011396011

> <Forcefield>
MMFF

> <ForcefieldBase>
MMFF

> <ForcefieldFFML>
<?xml version="1.0" encoding="UTF-8"?>
<!DOCTYPE ffml SYSTEM "Ffml.dtd">
<ffml version="1.0">
<forcefield name="MMFF" derivedFrom="MMFF" base="MMFF">
<atomTypes>
<atomType
name="C100"
element="C"
mass="12.011"
annotation=""/>
<atomType
name="O101"
element="O"
mass="16"
annotation=""/>
<atomType
name="N102"
element="N"
mass="14.007"
annotation=""/>
<atomType
name="H103"
element="H"
mass="1.008"
annotation=""/>
</atomTypes>
<parameters>
</parameters>
</forcefield>
</ffml>

> <Initial Potential Energy>
180.17977

> <Initial RMS Gradient>
29.51419

> <Minimization Criteria>
STEEPD> Minimization exiting with gradient tolerance ( 3.0000000) satisfied.

> <CHARMm Energy>
76.81462

> <Potential Energy>
76.81462

> <RMS Gradient>
0.02022

> <Bond Energy>
4.86072

> <Angle Energy>
7.30582

> <STRBend>
0.58527

> <Dihedral Energy>
11.76563

> <OOPLane>
0.11673

> <Van der Waals Energy>
52.28746

> <Electrostatic Energy>
-0.107

> <Hydrogen Bond Energy>
0

> <Solvation Free Energy>
0

> <HasGasteigerCharges>
true

> <REMARK99>
REMARK  99  MacroMolecule created from Mol2 file
REMARK  99  CHEMBL1641718
REMARK  99  PROTEIN
REMARK  99  GASTEIGER
REMARK  99
REMARK  99

$$$$
CHEMBL1209170
  SciTegic05292516403D

 62 66  0  0  0  0            999 V2000
   17.7917   -9.2840   -2.0437 O   0  0
   16.9165   -8.9927   -1.0499 C   0  0
   16.8337  -10.0587   -0.1755 C   0  0
   17.7457  -11.0163   -0.7290 C   0  0
   18.3338  -10.5302   -1.8351 N   0  0
   18.1492  -12.3297   -0.2282 C   0  0
   17.9064  -13.4953   -0.9782 C   0  0
   18.4138  -14.7357   -0.5639 C   0  0
   19.1562  -14.8385    0.6095 C   0  0
   19.3876  -13.7003    1.3752 C   0  0
   18.8880  -12.4567    0.9623 C   0  0
   19.2874  -11.1012    1.9642 Cl  0  0
   16.9564  -13.4890   -2.4280 Cl  0  0
   14.8572   -9.3792    1.1024 O   0  0
    5.4651  -12.8319   -0.0462 C   0  0
    5.6117  -14.2148   -0.1792 C   0  0
    6.8575  -14.8063    0.0518 C   0  0
    7.9565  -14.0002    0.3861 C   0  0
    7.8192  -12.6092    0.5035 C   0  0
    6.5588  -12.0350    0.2951 C   0  0
    9.0189  -11.7423    0.8243 C   0  0
   10.0699  -11.8171   -0.2061 N   0  0
   11.2885  -11.2159    0.1355 C   0  0
   12.4970  -11.9352    0.1859 C   0  0
   13.6974  -11.3434    0.4984 N   0  0
   13.6958  -10.0260    0.7597 C   0  0
   12.5599   -9.2413    0.7285 C   0  0
   11.3497   -9.8425    0.4090 C   0  0
   12.4929  -13.4308   -0.0955 C   0  0
   16.0467  -10.1745    1.0857 C   0  0
   11.6827  -14.1368    0.7496 F   0  0
   13.7277  -14.0074    0.0414 F   0  0
   12.0922  -13.7471   -1.3623 F   0  0
    9.6891  -11.5977   -1.6046 C   0  0
   16.1774   -7.6813   -0.9583 C   0  0
   16.5617   -6.6916    0.1117 C   0  0
   16.8979   -6.4072   -1.3224 C   0  0
    7.1001  -16.2593   -0.1215 C   0  0
    6.0332  -17.0524    0.1072 O   0  0
    8.2035  -16.6885   -0.4224 O   0  0
   18.2446  -15.6278   -1.1638 H   0  0
   19.5550  -15.8035    0.9196 H   0  0
   19.9886  -13.7825    2.2806 H   0  0
    4.4994  -12.3673   -0.2317 H   0  0
    4.7572  -14.8006   -0.5043 H   0  0
    8.9437  -14.4479    0.5203 H   0  0
    6.4248  -10.9578    0.3736 H   0  0
    8.6916  -10.7028    0.9537 H   0  0
    9.4185  -12.0726    1.7927 H   0  0
   12.6150   -8.1807    0.9455 H   0  0
   10.4539   -9.2279    0.3625 H   0  0
   16.6654   -9.7684    1.8948 H   0  0
   15.8642  -11.2193    1.3633 H   0  0
    9.2957  -10.5851   -1.7488 H   0  0
    8.9245  -12.3123   -1.9238 H   0  0
   10.5446  -11.7367   -2.2762 H   0  0
   15.1288   -7.7452   -1.2322 H   0  0
   15.7659   -6.1186    0.5735 H   0  0
   17.3783   -6.9356    0.7819 H   0  0
   17.9411   -6.4593   -1.6183 H   0  0
   16.3349   -5.6348   -1.8344 H   0  0
    5.2402  -16.6392    0.4947 H   0  0
  1  2  1  0
  2  3  2  0
  2 35  1  0
  3  4  1  0
  4  5  2  0
  4  6  1  0
  5  1  1  0
  6  7  2  0
  7  8  1  0
  7 13  1  0
  8  9  2  0
  8 41  1  0
  9 10  1  0
  9 42  1  0
 10 11  2  0
 10 43  1  0
 11  6  1  0
 11 12  1  0
 14 30  1  0
 15 16  2  0
 15 44  1  0
 16 17  1  0
 16 45  1  0
 17 18  2  0
 17 38  1  0
 18 19  1  0
 18 46  1  0
 19 20  2  0
 19 21  1  0
 20 15  1  0
 20 47  1  0
 21 22  1  0
 21 48  1  0
 21 49  1  0
 22 23  1  0
 22 34  1  0
 23 24  2  0
 24 25  1  0
 24 29  1  0
 25 26  2  0
 26 14  1  0
 26 27  1  0
 27 28  2  0
 27 50  1  0
 28 23  1  0
 28 51  1  0
 29 31  1  0
 29 32  1  0
 29 33  1  0
 30  3  1  0
 30 52  1  0
 30 53  1  0
 34 54  1  0
 34 55  1  0
 34 56  1  0
 35 37  1  0
 35 57  1  0
 36 35  1  0
 36 58  1  0
 36 59  1  0
 37 36  1  0
 37 60  1  0
 37 61  1  0
 38 39  1  0
 38 40  2  0
 39 62  1  0
M  END
> <Name>
CHEMBL1209170

> <Clean Energy>
99.051598

> <chembl_id>
CHEMBL1209170

> <chembl_pref_name>
None

> <efficacy>
0.1

> <Forcefield>
MMFF

> <ForcefieldBase>
MMFF

> <ForcefieldFFML>
<?xml version="1.0" encoding="UTF-8"?>
<!DOCTYPE ffml SYSTEM "Ffml.dtd">
<ffml version="1.0">
<forcefield name="MMFF" derivedFrom="MMFF" base="MMFF">
<atomTypes>
<atomType
name="O100"
element="O"
mass="16"
annotation=""/>
<atomType
name="C101"
element="C"
mass="12.011"
annotation=""/>
<atomType
name="N102"
element="N"
mass="14.007"
annotation=""/>
<atomType
name="Cl103"
element="Cl"
mass="35.453"
annotation=""/>
<atomType
name="F104"
element="F"
mass="18.998"
annotation=""/>
<atomType
name="H105"
element="H"
mass="1.008"
annotation=""/>
</atomTypes>
<parameters>
</parameters>
</forcefield>
</ffml>

> <Initial Potential Energy>
290.79317

> <Initial RMS Gradient>
32.55488

> <Minimization Criteria>
CONJUG> Minimization exiting with gradient tolerance ( 0.0100000) satisfied.

> <CHARMm Energy>
137.04313

> <Potential Energy>
137.04313

> <RMS Gradient>
0.00926

> <Bond Energy>
7.12254

> <Angle Energy>
16.38384

> <STRBend>
1.35502

> <Dihedral Energy>
30.0403

> <OOPLane>
2.68939

> <Van der Waals Energy>
63.88923

> <Electrostatic Energy>
15.56281

> <Hydrogen Bond Energy>
0

> <Solvation Free Energy>
0

> <HasGasteigerCharges>
true

> <REMARK99>
REMARK  99  MacroMolecule created from Mol2 file
REMARK  99  CHEMBL1209170
REMARK  99  PROTEIN
REMARK  99  GASTEIGER
REMARK  99
REMARK  99

$$$$
CHEMBL509236
  SciTegic05292516403D

 60 63  0  0  0  0            999 V2000
    1.8686  -21.8758   -0.2631 C   0  0
    1.5453  -23.1984   -0.5580 C   0  0
    2.4697  -24.2083   -0.3012 C   0  0
    3.0545  -21.4796    0.2588 N   0  0
    3.9254  -22.4858    0.4918 C   0  0
    3.7034  -23.8387    0.2567 C   0  0
    4.8819  -24.5350    0.6440 C   0  0
    5.7381  -23.6070    1.2333 C   0  0
    5.2049  -22.3509    0.9910 N   0  0
    7.0087  -23.8411    1.9775 C   0  0
    5.8602  -21.0661    1.2413 C   0  0
    7.1681  -20.9268    0.4925 C   0  0
    8.4078  -20.9233    1.1625 C   0  0
    9.6228  -20.8596    0.4598 C   0  0
    9.5961  -20.7568   -0.9304 C   0  0
    8.3724  -20.7316   -1.6063 C   0  0
    7.1778  -20.8202   -0.8978 C   0  0
    5.1423  -25.9597    0.4859 C   0  0
    4.3260  -26.8235    0.7910 O   0  0
    6.4475  -26.3509   -0.1104 C   0  0
    7.0913  -27.5001    0.3551 C   0  0
    8.3410  -27.8580   -0.1608 C   0  0
    8.9428  -27.0733   -1.1476 C   0  0
    8.2794  -25.9452   -1.6341 C   0  0
    7.0345  -25.5825   -1.1237 C   0  0
   10.7434  -20.9262    1.2458 O   0  0
   12.0419  -20.7961    0.6332 C   0  0  2  0  0  0
   13.0858  -21.4363    1.5610 C   0  0
   12.3850  -19.3228    0.4500 C   0  0
   12.5376  -22.0864    2.6171 O   0  0
   14.2986  -21.3791    1.3897 O   0  0
   10.1615  -27.2964   -1.7210 O   0  0
   10.9409  -28.3475   -1.1683 C   0  0
    0.8520  -20.8013   -0.5365 C   0  0
    6.0253  -20.8039   -1.5793 F   0  0
    0.5756  -23.4492   -0.9782 H   0  0
    2.2296  -25.2480   -0.5081 H   0  0
    7.1388  -23.1158    2.7858 H   0  0
    7.8697  -23.7904    1.3055 H   0  0
    7.0056  -24.8307    2.4464 H   0  0
    5.1850  -20.2536    0.9520 H   0  0
    6.0081  -20.9961    2.3251 H   0  0
    8.4324  -20.9938    2.2485 H   0  0
   10.4989  -20.6917   -1.5286 H   0  0
    8.3415  -20.6493   -2.6892 H   0  0
    6.6314  -28.1085    1.1304 H   0  0
    8.8165  -28.7532    0.2281 H   0  0
    8.7395  -25.3429   -2.4138 H   0  0
    6.5379  -24.7007   -1.5222 H   0  0
   12.0971  -21.3654   -0.3009 H   0  0
   13.3838  -19.1961    0.0201 H   0  0
   12.3596  -18.7966    1.4111 H   0  0
   11.6644  -18.8214   -0.2030 H   0  0
   11.5636  -21.9800    2.5999 H   0  0
   11.9053  -28.3560   -1.6853 H   0  0
   10.4662  -29.3198   -1.3364 H   0  0
   11.1369  -28.1814   -0.1036 H   0  0
    1.2484  -19.8160   -0.2706 H   0  0
   -0.0515  -20.9768    0.0556 H   0  0
    0.5918  -20.7883   -1.5994 H   0  0
  1  2  2  0
  1 34  1  0
  2  3  1  0
  2 36  1  0
  3  6  2  0
  3 37  1  0
  4  1  1  0
  5  4  2  0
  5  6  1  0
  6  7  1  0
  7  8  2  0
  7 18  1  0
  8  9  1  0
  8 10  1  0
  9  5  1  0
  9 11  1  0
 10 38  1  0
 10 39  1  0
 10 40  1  0
 11 12  1  0
 11 41  1  0
 11 42  1  0
 12 13  2  0
 13 14  1  0
 13 43  1  0
 14 15  2  0
 14 26  1  0
 15 16  1  0
 15 44  1  0
 16 17  2  0
 16 45  1  0
 17 12  1  0
 17 35  1  0
 18 19  2  0
 18 20  1  0
 20 21  2  0
 21 22  1  0
 21 46  1  0
 22 23  2  0
 22 47  1  0
 23 24  1  0
 23 32  1  0
 24 25  2  0
 24 48  1  0
 25 20  1  0
 25 49  1  0
 26 27  1  0
 27 28  1  0
 27 29  1  0
 27 50  1  0
 28 30  1  0
 28 31  2  0
 29 51  1  0
 29 52  1  0
 29 53  1  0
 30 54  1  0
 32 33  1  0
 33 55  1  0
 33 56  1  0
 33 57  1  0
 34 58  1  0
 34 59  1  0
 34 60  1  0
M  END
> <Name>
CHEMBL509236

> <Clean Energy>
87.507797

> <chembl_id>
CHEMBL509236

> <chembl_pref_name>
None

> <efficacy>
0.27

> <Forcefield>
MMFF

> <ForcefieldBase>
MMFF

> <ForcefieldFFML>
<?xml version="1.0" encoding="UTF-8"?>
<!DOCTYPE ffml SYSTEM "Ffml.dtd">
<ffml version="1.0">
<forcefield name="MMFF" derivedFrom="MMFF" base="MMFF">
<atomTypes>
<atomType
name="C100"
element="C"
mass="12.011"
annotation=""/>
<atomType
name="N101"
element="N"
mass="14.007"
annotation=""/>
<atomType
name="O102"
element="O"
mass="16"
annotation=""/>
<atomType
name="F103"
element="F"
mass="18.998"
annotation=""/>
<atomType
name="H104"
element="H"
mass="1.008"
annotation=""/>
</atomTypes>
<parameters>
</parameters>
</forcefield>
</ffml>

> <Initial Potential Energy>
291.93199

> <Initial RMS Gradient>
35.22759

> <Minimization Criteria>
STEEPD> Minimization exiting with gradient tolerance ( 3.0000000) satisfied.

> <CHARMm Energy>
106.27456

> <Potential Energy>
106.27456

> <RMS Gradient>
0.10868

> <Bond Energy>
6.36985

> <Angle Energy>
19.2501

> <STRBend>
1.11467

> <Dihedral Energy>
8.7765

> <OOPLane>
0.03595

> <Van der Waals Energy>
65.79569

> <Electrostatic Energy>
4.93179

> <Hydrogen Bond Energy>
0

> <Solvation Free Energy>
0

> <HasGasteigerCharges>
true

> <REMARK99>
REMARK  99  MacroMolecule created from Mol2 file
REMARK  99  CHEMBL509236
REMARK  99  PROTEIN
REMARK  99  GASTEIGER
REMARK  99
REMARK  99

$$$$
CHEMBL4278109
  SciTegic05292516403D

 65 70  0  0  0  0            999 V2000
   19.8844  -21.4498   -2.0697 C   0  0
   21.0399  -20.6090   -2.0567 O   0  0
   21.1930  -22.9880   -0.1409 C   0  0
   19.9078  -22.3715    0.2612 C   0  0
   19.2564  -21.5916   -0.7048 C   0  0
   18.0706  -20.9320   -0.3689 C   0  0
   17.5404  -21.0265    0.9302 C   0  0
   18.1855  -21.8414    1.8728 C   0  0
   19.3721  -22.4984    1.5460 C   0  0
   22.1736  -21.0128   -1.3980 C   0  0
   22.3227  -22.0958   -0.5100 C   0  0
   23.5631  -22.2842    0.1322 C   0  0
   24.6442  -21.4453   -0.1328 C   0  0
   24.5001  -20.3960   -1.0306 C   0  0
   23.2705  -20.1781   -1.6504 C   0  0
   21.2766  -24.3259   -0.3384 C   0  0
   20.1010  -25.1693   -0.0554 C   0  0
   22.4215  -25.0920   -0.9376 C   0  0
   16.3212  -20.2229    1.3282 C   0  0
   16.4693  -18.8162    0.9737 N   0  0
   19.0396  -25.3209   -0.7644 N   0  0
   18.2480  -26.2629   -0.0300 O   0  0
   18.9831  -26.5888    1.0822 C   0  0
   20.1115  -25.8685    1.0752 N   0  0
   18.6894  -27.4332    1.9154 O   0  0
   16.2199  -16.9179   -0.1418 N   0  0
   15.6988  -18.1101    0.0713 C   0  0
   17.3128  -16.8235    0.6833 C   0  0
   17.4687  -17.9823    1.4320 C   0  0
   18.4940  -18.1418    2.3718 C   0  0
   19.3868  -17.0793    2.5302 C   0  0
   19.2547  -15.9106    1.7806 C   0  0
   18.2167  -15.7549    0.8406 C   0  0
   14.4653  -18.6587   -0.5781 C   0  0
   13.7072  -17.6048   -1.3862 C   0  0
   12.4487  -18.1847   -2.0128 C   0  0
   18.1120  -14.4806    0.0569 C   0  0
   19.1654  -20.9820   -2.7531 H   0  0
   20.1175  -22.4234   -2.5203 H   0  0
   17.5863  -20.2996   -1.1119 H   0  0
   17.7910  -21.9371    2.8820 H   0  0
   19.8834  -23.0830    2.3046 H   0  0
   23.6951  -23.0821    0.8598 H   0  0
   25.5935  -21.6026    0.3710 H   0  0
   25.3383  -19.7375   -1.2360 H   0  0
   23.1559  -19.3383   -2.3316 H   0  0
   22.0536  -25.9086   -1.5694 H   0  0
   23.0412  -25.5283   -0.1474 H   0  0
   23.0553  -24.4728   -1.5790 H   0  0
   15.4374  -20.6383    0.8359 H   0  0
   16.1507  -20.2526    2.4107 H   0  0
   20.8169  -25.9113    1.7861 H   0  0
   18.6129  -19.0525    2.9464 H   0  0
   20.2033  -17.1780    3.2419 H   0  0
   19.9666  -15.0997    1.9280 H   0  0
   14.7488  -19.4891   -1.2359 H   0  0
   13.8010  -19.0611    0.1965 H   0  0
   13.4308  -16.7619   -0.7408 H   0  0
   14.3497  -17.2039   -2.1794 H   0  0
   11.9238  -17.4167   -2.5892 H   0  0
   11.7647  -18.5587   -1.2446 H   0  0
   12.6912  -19.0104   -2.6892 H   0  0
   17.2593  -14.4984   -0.6289 H   0  0
   19.0190  -14.3285   -0.5369 H   0  0
   17.9820  -13.6308    0.7346 H   0  0
  1  2  1  0
  1  5  1  0
  1 38  1  0
  1 39  1  0
  2 10  1  0
  3 16  2  0
  4  3  1  0
  4  5  2  0
  5  6  1  0
  6  7  2  0
  6 40  1  0
  7  8  1  0
  7 19  1  0
  8  9  2  0
  8 41  1  0
  9  4  1  0
  9 42  1  0
 10 11  2  0
 11  3  1  0
 11 12  1  0
 12 13  2  0
 12 43  1  0
 13 14  1  0
 13 44  1  0
 14 15  2  0
 14 45  1  0
 15 10  1  0
 15 46  1  0
 16 17  1  0
 16 18  1  0
 17 21  2  0
 18 47  1  0
 18 48  1  0
 18 49  1  0
 19 20  1  0
 19 50  1  0
 19 51  1  0
 20 29  1  0
 21 22  1  0
 22 23  1  0
 23 24  1  0
 23 25  2  0
 24 17  1  0
 24 52  1  0
 26 27  2  0
 27 20  1  0
 27 34  1  0
 28 26  1  0
 28 29  2  0
 29 30  1  0
 30 31  2  0
 30 53  1  0
 31 32  1  0
 31 54  1  0
 32 33  2  0
 32 55  1  0
 33 28  1  0
 33 37  1  0
 34 35  1  0
 34 56  1  0
 34 57  1  0
 35 36  1  0
 35 58  1  0
 35 59  1  0
 36 60  1  0
 36 61  1  0
 36 62  1  0
 37 63  1  0
 37 64  1  0
 37 65  1  0
M  END
> <Name>
CHEMBL4278109

> <Clean Energy>
120.829002

> <chembl_id>
CHEMBL4278109

> <chembl_pref_name>
None

> <efficacy>
0.090218424

> <Forcefield>
MMFF

> <ForcefieldBase>
MMFF

> <ForcefieldFFML>
<?xml version="1.0" encoding="UTF-8"?>
<!DOCTYPE ffml SYSTEM "Ffml.dtd">
<ffml version="1.0">
<forcefield name="MMFF" derivedFrom="MMFF" base="MMFF">
<atomTypes>
<atomType
name="C100"
element="C"
mass="12.011"
annotation=""/>
<atomType
name="O101"
element="O"
mass="16"
annotation=""/>
<atomType
name="N102"
element="N"
mass="14.007"
annotation=""/>
<atomType
name="H103"
element="H"
mass="1.008"
annotation=""/>
</atomTypes>
<parameters>
</parameters>
</forcefield>
</ffml>

> <Initial Potential Energy>
550.3387

> <Initial RMS Gradient>
131.14154

> <Minimization Criteria>
STEEPD> Minimization exiting with gradient tolerance ( 3.0000000) satisfied.

> <CHARMm Energy>
79.77778

> <Potential Energy>
79.77778

> <RMS Gradient>
0.10675

> <Bond Energy>
9.18982

> <Angle Energy>
23.739

> <STRBend>
-0.94462

> <Dihedral Energy>
16.67699

> <OOPLane>
0.27473

> <Van der Waals Energy>
68.26484

> <Electrostatic Energy>
-37.42298

> <Hydrogen Bond Energy>
0

> <Solvation Free Energy>
0

> <HasGasteigerCharges>
true

> <REMARK99>
REMARK  99  MacroMolecule created from Mol2 file
REMARK  99  CHEMBL4278109
REMARK  99  PROTEIN
REMARK  99  GASTEIGER
REMARK  99
REMARK  99

$$$$
CHEMBL4084839
  SciTegic05292516403D

 70 73  0  0  0  0            999 V2000
   25.2406  -22.3555   -0.9299 C   0  0
   24.6627  -21.5145    0.2650 C   0  0
   24.8421  -22.3132    1.6075 C   0  0
   10.8694  -21.2898   -0.9244 C   0  0
   10.5543  -22.3614   -0.0933 C   0  0
   11.5634  -22.9740    0.6444 C   0  0
   12.8858  -22.5142    0.5561 C   0  0
   13.2226  -21.4296   -0.2740 C   0  0
   12.1913  -20.8280   -1.0175 C   0  0
   14.5977  -20.9592   -0.3566 C   0  0
   15.6909  -21.6122   -0.6961 N   0  0
   16.7081  -20.6932   -0.5150 C   0  0
   16.1644  -19.4966   -0.0921 C   0  0
   14.8110  -19.6622    0.0223 O   0  0
   18.1263  -21.0755   -0.7820 C   0  0
   19.0598  -20.2302   -0.0922 O   0  0
   20.3667  -20.6308   -0.0833 C   0  0
   20.9319  -21.6111   -0.8967 C   0  0
   22.3060  -21.8931   -0.8047 C   0  0
   23.1347  -21.2275    0.1165 C   0  0
   22.5305  -20.2611    0.9434 C   0  0
   21.1731  -19.9552    0.8299 C   0  0
   25.4217  -20.1463    0.2780 C   0  0
   25.2861  -19.2654   -0.8152 C   0  0
   25.8773  -17.9971   -0.8125 C   0  0
   26.6361  -17.5890    0.2781 C   0  0
   26.7965  -18.4430    1.3663 C   0  0
   26.1981  -19.7084    1.3655 C   0  0
   27.1730  -16.3386    0.4059 O   0  0
   27.8917  -15.8555   -0.7463 C   0  0  1  0  0  0
   27.1142  -14.7045   -1.3677 C   0  0
   29.2411  -15.3358   -0.2633 C   0  0
   30.1151  -14.9041   -1.0021 O   0  0
   29.3899  -15.3740    1.0851 O   0  0
   24.1766  -23.6877    1.6704 C   0  0
   26.7358  -22.6659   -0.8602 C   0  0
   12.4776  -19.5172   -2.1150 Cl  0  0
   14.0612  -23.3264    1.5413 Cl  0  0
   16.7100  -18.1728    0.2531 C   0  0
   25.0504  -21.8446   -1.8830 H   0  0
   24.7199  -23.3167   -1.0093 H   0  0
   25.9081  -22.4642    1.8173 H   0  0
   24.4531  -21.7255    2.4502 H   0  0
   10.0812  -20.8171   -1.5071 H   0  0
    9.5290  -22.7193   -0.0240 H   0  0
   11.3209  -23.8118    1.2945 H   0  0
   18.2602  -22.1162   -0.4603 H   0  0
   18.3034  -21.0009   -1.8616 H   0  0
   20.3446  -22.1648   -1.6252 H   0  0
   22.7113  -22.6420   -1.4772 H   0  0
   23.1203  -19.7135    1.6770 H   0  0
   20.7519  -19.1778    1.4621 H   0  0
   24.6738  -19.5447   -1.6711 H   0  0
   25.6772  -17.3387   -1.6511 H   0  0
   27.3748  -18.1271    2.2317 H   0  0
   26.3195  -20.3236    2.2514 H   0  0
   28.0966  -16.6541   -1.4699 H   0  0
   27.6407  -14.2905   -2.2335 H   0  0
   26.9682  -13.8962   -0.6419 H   0  0
   26.1180  -15.0248   -1.6867 H   0  0
   28.5667  -15.7371    1.4837 H   0  0
   24.3363  -24.1262    2.6613 H   0  0
   24.6026  -24.3801    0.9399 H   0  0
   23.0967  -23.6285    1.5114 H   0  0
   27.0356  -23.2297   -1.7501 H   0  0
   26.9814  -23.2798    0.0105 H   0  0
   27.3429  -21.7570   -0.8306 H   0  0
   15.9151  -17.4248    0.3326 H   0  0
   17.4145  -17.8340   -0.5126 H   0  0
   17.2349  -18.2150    1.2123 H   0  0
  1 36  1  0
  1 40  1  0
  1 41  1  0
  2  1  1  0
  2 23  1  0
  3  2  1  0
  3 35  1  0
  3 42  1  0
  3 43  1  0
  4  5  2  0
  4 44  1  0
  5  6  1  0
  5 45  1  0
  6  7  2  0
  6 46  1  0
  7  8  1  0
  7 38  1  0
  8  9  2  0
  8 10  1  0
  9  4  1  0
  9 37  1  0
 10 11  2  0
 11 12  1  0
 12 13  2  0
 12 15  1  0
 13 14  1  0
 13 39  1  0
 14 10  1  0
 15 16  1  0
 15 47  1  0
 15 48  1  0
 16 17  1  0
 17 18  2  0
 18 19  1  0
 18 49  1  0
 19 20  2  0
 19 50  1  0
 20  2  1  0
 20 21  1  0
 21 22  2  0
 21 51  1  0
 22 17  1  0
 22 52  1  0
 23 24  2  0
 24 25  1  0
 24 53  1  0
 25 26  2  0
 25 54  1  0
 26 27  1  0
 26 29  1  0
 27 28  2  0
 27 55  1  0
 28 23  1  0
 28 56  1  0
 29 30  1  0
 30 31  1  0
 30 32  1  0
 30 57  1  0
 31 58  1  0
 31 59  1  0
 31 60  1  0
 32 33  2  0
 32 34  1  0
 34 61  1  0
 35 62  1  0
 35 63  1  0
 35 64  1  0
 36 65  1  0
 36 66  1  0
 36 67  1  0
 39 68  1  0
 39 69  1  0
 39 70  1  0
M  END
> <Name>
CHEMBL4084839

> <Clean Energy>
68.308197

> <chembl_id>
CHEMBL4084839

> <chembl_pref_name>
None

> <efficacy>
0.09

> <Forcefield>
MMFF

> <ForcefieldBase>
MMFF

> <ForcefieldFFML>
<?xml version="1.0" encoding="UTF-8"?>
<!DOCTYPE ffml SYSTEM "Ffml.dtd">
<ffml version="1.0">
<forcefield name="MMFF" derivedFrom="MMFF" base="MMFF">
<atomTypes>
<atomType
name="C100"
element="C"
mass="12.011"
annotation=""/>
<atomType
name="N101"
element="N"
mass="14.007"
annotation=""/>
<atomType
name="O102"
element="O"
mass="16"
annotation=""/>
<atomType
name="Cl103"
element="Cl"
mass="35.453"
annotation=""/>
<atomType
name="H104"
element="H"
mass="1.008"
annotation=""/>
</atomTypes>
<parameters>
</parameters>
</forcefield>
</ffml>

> <Initial Potential Energy>
264.90285

> <Initial RMS Gradient>
29.04316

> <Minimization Criteria>
STEEPD> Minimization exiting with gradient tolerance ( 3.0000000) satisfied.

> <CHARMm Energy>
117.95208

> <Potential Energy>
117.95208

> <RMS Gradient>
0.04967

> <Bond Energy>
12.48391

> <Angle Energy>
18.60725

> <STRBend>
0.96018

> <Dihedral Energy>
5.73922

> <OOPLane>
0.12974

> <Van der Waals Energy>
77.7567

> <Electrostatic Energy>
2.27506

> <Hydrogen Bond Energy>
0

> <Solvation Free Energy>
0

> <HasGasteigerCharges>
true

> <REMARK99>
REMARK  99  MacroMolecule created from Mol2 file
REMARK  99  CHEMBL4084839
REMARK  99  PROTEIN
REMARK  99  GASTEIGER
REMARK  99
REMARK  99

$$$$
CHEMBL572566
  SciTegic05292516403D

 46 48  0  0  0  0            999 V2000
   -1.9361  -13.7599   -0.5492 C   0  0
   -0.7074  -13.9757   -1.1854 C   0  0
    0.4749  -13.4361   -0.6611 C   0  0
    0.4387  -12.6759    0.5058 C   0  0
   -0.7822  -12.4714    1.1512 C   0  0
   -1.9584  -13.0116    0.6342 C   0  0
    1.4964  -12.0791    1.1260 O   0  0
    2.8212  -12.2200    0.5700 C   0  0  1  0  0  0
    3.5736  -10.9563    1.0040 C   0  0
    3.4844  -13.4662    1.1706 C   0  0
    4.7012  -13.9576    0.4220 C   0  0
    5.9885  -13.5753    0.8266 C   0  0
    7.1183  -14.0362    0.1466 C   0  0
    6.9735  -14.8852   -0.9479 C   0  0
    5.6977  -15.2687   -1.3632 C   0  0
    4.5665  -14.8078   -0.6832 C   0  0
    2.8373  -10.1219    1.7829 O   0  0
    4.7258  -10.6874    0.6979 O   0  0
   -3.2141  -14.3623   -1.0857 C   0  0
   -4.2080  -13.3351   -1.1623 O   0  0
   -5.4367  -13.7136   -0.7025 C   0  0
   -6.1012  -12.7889    0.1034 C   0  0
   -7.3552  -13.0933    0.6238 C   0  0
   -7.9505  -14.3165    0.3183 C   0  0
   -7.3019  -15.2281   -0.5162 C   0  0
   -6.0449  -14.9243   -1.0350 C   0  0
   -0.6593  -14.5642   -2.0995 H   0  0
    1.3973  -13.6338   -1.1964 H   0  0
   -0.8263  -11.8874    2.0672 H   0  0
   -2.8989  -12.8402    1.1557 H   0  0
    2.8005  -12.1984   -0.5248 H   0  0
    3.7533  -13.2796    2.2196 H   0  0
    2.7613  -14.2911    1.2214 H   0  0
    6.1199  -12.9024    1.6719 H   0  0
    8.1116  -13.7281    0.4686 H   0  0
    7.8559  -15.2428   -1.4753 H   0  0
    5.5857  -15.9309   -2.2178 H   0  0
    3.5812  -15.1273   -1.0162 H   0  0
    1.9320  -10.4928    1.8864 H   0  0
   -3.0624  -14.7597   -2.0956 H   0  0
   -3.4919  -15.1898   -0.4193 H   0  0
   -5.6195  -11.8419    0.3367 H   0  0
   -7.8749  -12.3797    1.2589 H   0  0
   -8.9337  -14.5545    0.7180 H   0  0
   -7.7928  -16.1664   -0.7702 H   0  0
   -5.5522  -15.6276   -1.6983 H   0  0
  1  2  2  0
  1 19  1  0
  2  3  1  0
  2 27  1  0
  3  4  2  0
  3 28  1  0
  4  5  1  0
  4  7  1  0
  5  6  2  0
  5 29  1  0
  6  1  1  0
  6 30  1  0
  7  8  1  0
  8  9  1  0
  8 10  1  0
  8 31  1  0
  9 17  1  0
  9 18  2  0
 10 11  1  0
 10 32  1  0
 10 33  1  0
 11 12  2  0
 12 13  1  0
 12 34  1  0
 13 14  2  0
 13 35  1  0
 14 15  1  0
 14 36  1  0
 15 16  2  0
 15 37  1  0
 16 11  1  0
 16 38  1  0
 17 39  1  0
 19 20  1  0
 19 40  1  0
 19 41  1  0
 21 20  1  0
 21 22  2  0
 22 23  1  0
 22 42  1  0
 23 24  2  0
 23 43  1  0
 24 25  1  0
 24 44  1  0
 25 26  2  0
 25 45  1  0
 26 21  1  0
 26 46  1  0
M  END
> <Name>
CHEMBL572566

> <Clean Energy>
11.3019

> <chembl_id>
CHEMBL572566

> <chembl_pref_name>
None

> <efficacy>
0.4

> <Forcefield>
MMFF

> <ForcefieldBase>
MMFF

> <ForcefieldFFML>
<?xml version="1.0" encoding="UTF-8"?>
<!DOCTYPE ffml SYSTEM "Ffml.dtd">
<ffml version="1.0">
<forcefield name="MMFF" derivedFrom="MMFF" base="MMFF">
<atomTypes>
<atomType
name="C100"
element="C"
mass="12.011"
annotation=""/>
<atomType
name="O101"
element="O"
mass="16"
annotation=""/>
<atomType
name="H102"
element="H"
mass="1.008"
annotation=""/>
</atomTypes>
<parameters>
</parameters>
</forcefield>
</ffml>

> <Initial Potential Energy>
152.69534

> <Initial RMS Gradient>
30.58259

> <Minimization Criteria>
CONJUG> Minimization exiting with gradient tolerance ( 0.0100000) satisfied.

> <CHARMm Energy>
73.63814

> <Potential Energy>
73.63814

> <RMS Gradient>
0.00858

> <Bond Energy>
5.17617

> <Angle Energy>
15.02885

> <STRBend>
0.06726

> <Dihedral Energy>
4.64229

> <OOPLane>
0.02819

> <Van der Waals Energy>
57.58603

> <Electrostatic Energy>
-8.89066

> <Hydrogen Bond Energy>
0

> <Solvation Free Energy>
0

> <HasGasteigerCharges>
true

> <REMARK99>
REMARK  99  MacroMolecule created from Mol2 file
REMARK  99  CHEMBL572566
REMARK  99  PROTEIN
REMARK  99  GASTEIGER
REMARK  99
REMARK  99

$$$$
CHEMBL3397549
  SciTegic05292516403D

 36 37  0  0  0  0            999 V2000
    1.7038   -3.3418   -1.3969 C   0  0
    2.2067   -3.2315    0.0402 C   0  0  2  0  0  0
    2.5245   -1.7540    0.3349 C   0  0
    2.3423   -3.1462   -2.4194 O   0  0
    0.4020   -3.6960   -1.4703 O   0  0
    1.3264   -0.8366    0.3682 C   0  0
    0.9550   -0.1172   -0.7772 C   0  0
   -0.1437    0.7412   -0.7475 C   0  0
   -0.8817    0.8851    0.4254 C   0  0
   -0.5240    0.1746    1.5694 C   0  0
    0.5745   -0.6856    1.5413 C   0  0
    3.4361   -3.9421    0.2256 O   0  0
    3.4400   -5.3063    0.1636 C   0  0
    4.7194   -5.8691    0.1197 C   0  0
    4.8917   -7.2529    0.0472 C   0  0
    3.7747   -8.0893    0.0227 C   0  0
    2.4922   -7.5376    0.0781 C   0  0
    2.3254   -6.1459    0.1514 C   0  0
    3.9913   -9.5465   -0.0627 C   0  0
    3.0220  -10.4069   -0.1145 N   0  0
    3.5662  -11.6959   -0.1928 O   0  0
    1.4512   -3.5902    0.7495 H   0  0
    3.0486   -1.6817    1.2979 H   0  0
    3.2545   -1.3745   -0.3939 H   0  0
    0.2162   -3.7143   -2.4332 H   0  0
    1.5242   -0.2253   -1.6991 H   0  0
   -0.4232    1.3039   -1.6352 H   0  0
   -1.7340    1.5592    0.4503 H   0  0
   -1.1000    0.2965    2.4838 H   0  0
    0.8448   -1.2302    2.4435 H   0  0
    5.5928   -5.2202    0.1325 H   0  0
    5.8983   -7.6607    0.0069 H   0  0
    1.6177   -8.1850    0.0655 H   0  0
    1.3120   -5.7605    0.2019 H   0  0
    5.0423   -9.8884   -0.0840 H   0  0
    2.7713  -12.2587   -0.2529 H   0  0
  1  4  2  0
  1  5  1  0
  2  1  1  0
  2  3  1  0
  2 12  1  0
  2 22  1  0
  3  6  1  0
  3 23  1  0
  3 24  1  0
  5 25  1  0
  6  7  1  0
  6 11  2  0
  7  8  2  0
  7 26  1  0
  8  9  1  0
  8 27  1  0
  9 10  2  0
  9 28  1  0
 10 11  1  0
 10 29  1  0
 11 30  1  0
 12 13  1  0
 13 14  1  0
 13 18  2  0
 14 15  2  0
 14 31  1  0
 15 16  1  0
 15 32  1  0
 16 17  2  0
 16 19  1  0
 17 18  1  0
 17 33  1  0
 18 34  1  0
 19 20  2  0
 19 35  1  0
 20 21  1  0
 21 36  1  0
M  END
> <Name>
CHEMBL3397549

> <Clean Energy>
18.468599

> <chembl_id>
CHEMBL3397549

> <chembl_pref_name>
None

> <efficacy>
0.44

> <Forcefield>
MMFF

> <ForcefieldBase>
MMFF

> <ForcefieldFFML>
<?xml version="1.0" encoding="UTF-8"?>
<!DOCTYPE ffml SYSTEM "Ffml.dtd">
<ffml version="1.0">
<forcefield name="MMFF" derivedFrom="MMFF" base="MMFF">
<atomTypes>
<atomType
name="C100"
element="C"
mass="12.011"
annotation=""/>
<atomType
name="O101"
element="O"
mass="16"
annotation=""/>
<atomType
name="N102"
element="N"
mass="14.007"
annotation=""/>
<atomType
name="H103"
element="H"
mass="1.008"
annotation=""/>
</atomTypes>
<parameters>
</parameters>
</forcefield>
</ffml>

> <Initial Potential Energy>
136.24963

> <Initial RMS Gradient>
31.95637

> <Minimization Criteria>
STEEPD> Minimization exiting with gradient tolerance ( 3.0000000) satisfied.

> <CHARMm Energy>
72.60771

> <Potential Energy>
72.60771

> <RMS Gradient>
0.09016

> <Bond Energy>
3.71779

> <Angle Energy>
13.52229

> <STRBend>
0.37328

> <Dihedral Energy>
4.21631

> <OOPLane>
0.00191

> <Van der Waals Energy>
38.19444

> <Electrostatic Energy>
12.58168

> <Hydrogen Bond Energy>
0

> <Solvation Free Energy>
0

> <HasGasteigerCharges>
true

> <REMARK99>
REMARK  99  MacroMolecule created from Mol2 file
REMARK  99  CHEMBL3397549
REMARK  99  PROTEIN
REMARK  99  GASTEIGER
REMARK  99
REMARK  99

$$$$
CHEMBL455130
  SciTegic05292516403D

 52 55  0  0  0  0            999 V2000
    9.4929  -13.2493   -0.4998 C   0  0
    9.0965  -14.5367   -0.8257 C   0  0
    9.9369  -15.6039   -0.5207 C   0  0
   10.6622  -12.9119    0.0900 N   0  0
   11.4560  -13.9744    0.3636 C   0  0
   11.1593  -15.3108    0.1036 C   0  0
   12.2631  -16.0648    0.5601 C   0  0
   13.1811  -15.2149    1.1510 C   0  0
   12.7113  -13.9257    0.9422 N   0  0
   14.4493  -15.5343    1.8609 C   0  0
   13.4047  -12.6876    1.2974 C   0  0
   14.7015  -12.5109    0.5291 C   0  0
   15.9404  -12.4380    1.2000 C   0  0
   17.1513  -12.3009    0.5002 C   0  0
   17.0993  -12.2194   -0.8924 C   0  0
   15.8825  -12.2696   -1.5726 C   0  0
   14.6879  -12.4122   -0.8683 C   0  0
   12.3829  -17.4109    0.4856 O   0  0
   13.4422  -17.9478   -0.2114 C   0  0
   14.1108  -19.0283    0.3651 C   0  0
   15.1821  -19.6209   -0.3063 C   0  0
   15.5685  -19.1348   -1.5553 C   0  0
   14.8942  -18.0636   -2.1401 C   0  0
   13.8246  -17.4698   -1.4686 C   0  0
   18.2658  -12.2654    1.3007 O   0  0
   19.5692  -12.1115    0.7002 C   0  0  2  0  0  0
   20.6267  -12.6073    1.7017 C   0  0
   19.8485  -10.6406    0.4147 C   0  0
   20.0908  -13.0364    2.8725 O   0  0
   21.8353  -12.6140    1.5005 O   0  0
   16.8871  -19.8620   -2.3846 Cl  0  0
   18.2078  -12.0818   -1.6317 F   0  0
    8.8340  -12.4115   -0.7248 H   0  0
    8.1412  -14.7098   -1.3073 H   0  0
    9.6481  -16.6254   -0.7522 H   0  0
   14.6374  -14.8408    2.6854 H   0  0
   15.2956  -15.5013    1.1682 H   0  0
   14.4084  -16.5370    2.2984 H   0  0
   12.7466  -11.8349    1.0995 H   0  0
   13.5766  -12.7223    2.3792 H   0  0
   15.9661  -12.5000    2.2868 H   0  0
   15.8750  -12.1986   -2.6566 H   0  0
   13.7465  -12.4531   -1.4155 H   0  0
   13.8129  -19.3929    1.3436 H   0  0
   15.7104  -20.4556    0.1475 H   0  0
   15.1934  -17.6894   -3.1153 H   0  0
   13.2955  -16.6415   -1.9315 H   0  0
   19.6754  -12.7592   -0.1755 H   0  0
   20.8433  -10.5027   -0.0209 H   0  0
   19.7993  -10.0514    1.3379 H   0  0
   19.1110  -10.2110   -0.2691 H   0  0
   19.1166  -12.9335    2.8432 H   0  0
  1  2  2  0
  1 33  1  0
  2  3  1  0
  2 34  1  0
  3  6  2  0
  3 35  1  0
  4  1  1  0
  5  4  2  0
  5  6  1  0
  6  7  1  0
  7  8  2  0
  7 18  1  0
  8  9  1  0
  8 10  1  0
  9  5  1  0
  9 11  1  0
 10 36  1  0
 10 37  1  0
 10 38  1  0
 11 12  1  0
 11 39  1  0
 11 40  1  0
 12 13  2  0
 13 14  1  0
 13 41  1  0
 14 15  2  0
 14 25  1  0
 15 16  1  0
 15 32  1  0
 16 17  2  0
 16 42  1  0
 17 12  1  0
 17 43  1  0
 18 19  1  0
 19 20  2  0
 20 21  1  0
 20 44  1  0
 21 22  2  0
 21 45  1  0
 22 23  1  0
 22 31  1  0
 23 24  2  0
 23 46  1  0
 24 19  1  0
 24 47  1  0
 25 26  1  0
 26 27  1  0
 26 28  1  0
 26 48  1  0
 27 29  1  0
 27 30  2  0
 28 49  1  0
 28 50  1  0
 28 51  1  0
 29 52  1  0
M  END
> <Name>
CHEMBL455130

> <Clean Energy>
97.407997

> <chembl_id>
CHEMBL455130

> <chembl_pref_name>
None

> <efficacy>
0.19

> <Forcefield>
MMFF

> <ForcefieldBase>
MMFF

> <ForcefieldFFML>
<?xml version="1.0" encoding="UTF-8"?>
<!DOCTYPE ffml SYSTEM "Ffml.dtd">
<ffml version="1.0">
<forcefield name="MMFF" derivedFrom="MMFF" base="MMFF">
<atomTypes>
<atomType
name="C100"
element="C"
mass="12.011"
annotation=""/>
<atomType
name="N101"
element="N"
mass="14.007"
annotation=""/>
<atomType
name="O102"
element="O"
mass="16"
annotation=""/>
<atomType
name="Cl103"
element="Cl"
mass="35.453"
annotation=""/>
<atomType
name="F104"
element="F"
mass="18.998"
annotation=""/>
<atomType
name="H105"
element="H"
mass="1.008"
annotation=""/>
</atomTypes>
<parameters>
</parameters>
</forcefield>
</ffml>

> <Initial Potential Energy>
249.59948

> <Initial RMS Gradient>
35.1677

> <Minimization Criteria>
STEEPD> Minimization exiting with gradient tolerance ( 3.0000000) satisfied.

> <CHARMm Energy>
91.76808

> <Potential Energy>
91.76808

> <RMS Gradient>
0.0107

> <Bond Energy>
5.77292

> <Angle Energy>
14.1444

> <STRBend>
1.2882

> <Dihedral Energy>
6.88838

> <OOPLane>
0.03394

> <Van der Waals Energy>
57.74062

> <Electrostatic Energy>
5.89962

> <Hydrogen Bond Energy>
0

> <Solvation Free Energy>
0

> <HasGasteigerCharges>
true

> <REMARK99>
REMARK  99  MacroMolecule created from Mol2 file
REMARK  99  CHEMBL455130
REMARK  99  PROTEIN
REMARK  99  GASTEIGER
REMARK  99
REMARK  99

$$$$
CHEMBL4852368
  SciTegic05292516403D

 53 56  0  0  0  0            999 V2000
   -0.2171  -24.0641    0.9383 C   0  0
    0.1736  -24.9941   -0.0255 C   0  0
    1.4394  -24.9346   -0.6242 C   0  0
    0.6565  -23.0470    1.3396 C   0  0
    1.9303  -22.9740    0.7520 C   0  0
    2.2980  -23.9039   -0.2155 C   0  0
    3.5712  -23.5206   -0.5851 N   0  0
    3.9083  -22.3925    0.1406 C   0  0
    2.9392  -22.0752    0.9762 N   0  0
    5.2072  -21.6595   -0.0056 C   0  0
    5.1399  -20.2367    0.5531 C   0  0
    6.4601  -19.5047    0.3683 C   0  0
    4.3718  -24.1449   -1.6319 C   0  0
    5.6959  -24.6852   -1.1459 C   0  0
    5.8007  -25.4343    0.0339 C   0  0
    7.0358  -25.9459    0.4442 C   0  0
    8.1919  -25.7462   -0.3253 C   0  0
    8.0816  -25.0054   -1.5102 C   0  0
    6.8496  -24.4863   -1.9186 C   0  0
    9.4882  -26.3006    0.0954 C   0  0
    9.7693  -27.6837    0.1218 C   0  0
   11.0190  -28.1431    0.5756 C   0  0
   11.9954  -27.2433    0.9994 C   0  0
   11.7372  -25.8779    0.9676 C   0  0
   10.4975  -25.4128    0.5218 C   0  0
    8.7773  -28.6840   -0.3602 C   0  0
    8.0244  -28.5279   -1.3065 O   0  0
    8.8195  -29.7761    0.4481 O   0  0
    7.8654  -30.7815    0.1050 C   0  0
   -1.2092  -24.1247    1.3821 H   0  0
   -0.5164  -25.7821   -0.3204 H   0  0
    1.7249  -25.6623   -1.3759 H   0  0
    0.3637  -22.3174    2.0867 H   0  0
    5.9905  -22.2180    0.5201 H   0  0
    5.4870  -21.6078   -1.0640 H   0  0
    4.3427  -19.6733    0.0528 H   0  0
    4.8920  -20.2609    1.6212 H   0  0
    6.3918  -18.4914    0.7763 H   0  0
    6.7207  -19.4271   -0.6920 H   0  0
    7.2727  -20.0252    0.8852 H   0  0
    3.8003  -24.9616   -2.0834 H   0  0
    4.5124  -23.3776   -2.4027 H   0  0
    4.9244  -25.6268    0.6508 H   0  0
    7.0862  -26.5153    1.3702 H   0  0
    8.9579  -24.8473   -2.1367 H   0  0
    6.8014  -23.9317   -2.8536 H   0  0
   11.2339  -29.2077    0.5953 H   0  0
   12.9547  -27.6063    1.3547 H   0  0
   12.4964  -25.1719    1.2964 H   0  0
   10.3136  -24.3391    0.5194 H   0  0
    6.8471  -30.3877    0.1832 H   0  0
    7.9725  -31.6062    0.8151 H   0  0
    8.0577  -31.1648   -0.9021 H   0  0
  1  2  2  0
  1 30  1  0
  2  3  1  0
  2 31  1  0
  3  6  2  0
  3 32  1  0
  4  1  1  0
  4 33  1  0
  5  4  2  0
  5  6  1  0
  6  7  1  0
  7  8  1  0
  7 13  1  0
  8  9  2  0
  8 10  1  0
  9  5  1  0
 10 11  1  0
 10 34  1  0
 10 35  1  0
 11 12  1  0
 11 36  1  0
 11 37  1  0
 12 38  1  0
 12 39  1  0
 12 40  1  0
 13 14  1  0
 13 41  1  0
 13 42  1  0
 14 15  2  0
 15 16  1  0
 15 43  1  0
 16 17  2  0
 16 44  1  0
 17 18  1  0
 17 20  1  0
 18 19  2  0
 18 45  1  0
 19 14  1  0
 19 46  1  0
 20 21  2  0
 21 22  1  0
 21 26  1  0
 22 23  2  0
 22 47  1  0
 23 24  1  0
 23 48  1  0
 24 25  2  0
 24 49  1  0
 25 20  1  0
 25 50  1  0
 26 27  2  0
 26 28  1  0
 28 29  1  0
 29 51  1  0
 29 52  1  0
 29 53  1  0
M  END
> <Name>
CHEMBL4852368

> <Clean Energy>
63.138

> <chembl_id>
CHEMBL4852368

> <chembl_pref_name>
None

> <efficacy>
0.205128205

> <Forcefield>
MMFF

> <ForcefieldBase>
MMFF

> <ForcefieldFFML>
<?xml version="1.0" encoding="UTF-8"?>
<!DOCTYPE ffml SYSTEM "Ffml.dtd">
<ffml version="1.0">
<forcefield name="MMFF" derivedFrom="MMFF" base="MMFF">
<atomTypes>
<atomType
name="C100"
element="C"
mass="12.011"
annotation=""/>
<atomType
name="N101"
element="N"
mass="14.007"
annotation=""/>
<atomType
name="O102"
element="O"
mass="16"
annotation=""/>
<atomType
name="H103"
element="H"
mass="1.008"
annotation=""/>
</atomTypes>
<parameters>
</parameters>
</forcefield>
</ffml>

> <Initial Potential Energy>
283.40582

> <Initial RMS Gradient>
37.98379

> <Minimization Criteria>
CONJUG> Minimization exiting with gradient tolerance ( 0.0100000) satisfied.

> <CHARMm Energy>
85.00724

> <Potential Energy>
85.00724

> <RMS Gradient>
0.00984

> <Bond Energy>
6.87247

> <Angle Energy>
7.15024

> <STRBend>
-0.19609

> <Dihedral Energy>
5.64919

> <OOPLane>
0.06259

> <Van der Waals Energy>
56.62362

> <Electrostatic Energy>
8.84522

> <Hydrogen Bond Energy>
0

> <Solvation Free Energy>
0

> <HasGasteigerCharges>
true

> <REMARK99>
REMARK  99  MacroMolecule created from Mol2 file
REMARK  99  CHEMBL4852368
REMARK  99  PROTEIN
REMARK  99  GASTEIGER
REMARK  99
REMARK  99

$$$$
CHEMBL4089775
  SciTegic05292516403D

 48 50  0  0  0  0            999 V2000
    7.9897  -20.6936   -0.0916 O   0  0
    6.6682  -20.5632   -0.6753 S   0  0
    6.4446  -20.6709   -2.1036 O   0  0
    2.3701  -17.2397   -0.7529 C   0  0
    2.5584  -18.4652   -1.4000 C   0  0
    3.7661  -19.1621   -1.3124 C   0  0
    3.4044  -16.6998    0.0235 C   0  0
    4.6363  -17.3674    0.0985 C   0  0
    4.8044  -18.5839   -0.5651 C   0  0
    6.0991  -18.9916   -0.2918 N   0  0
    6.8073  -17.9808    0.3364 C   0  0
    5.8667  -17.0373    0.7121 C   0  0
    5.6114  -21.6788    0.2114 C   0  0
    5.1529  -21.2945    1.4832 C   0  0
    4.2616  -22.1057    2.1874 C   0  0
    3.8263  -23.3033    1.6304 C   0  0
    4.3037  -23.7038    0.3820 C   0  0
    5.2218  -22.9127   -0.3195 C   0  0
    8.2955  -17.9278    0.5010 C   0  0
    8.7849  -16.4752    0.5617 C   0  0
   10.2960  -16.3697    0.5155 C   0  0
    1.0713  -16.4938   -0.8696 C   0  0
   10.6935  -14.9181    0.5236 C   0  0
   10.8587  -14.2589    1.5391 O   0  0
   10.8742  -14.3905   -0.7105 O   0  0
    1.2296  -15.1419   -0.8557 F   0  0
    0.3879  -16.7760   -2.0164 F   0  0
    0.2117  -16.7835    0.1474 F   0  0
    5.6305  -23.4424   -1.5124 O   0  0
    7.0348  -23.7162   -1.5323 C   0  0
    1.7584  -18.8872   -2.0047 H   0  0
    3.8868  -20.1021   -1.8460 H   0  0
    3.2716  -15.7457    0.5307 H   0  0
    6.0654  -16.1284    1.2682 H   0  0
    5.4760  -20.3657    1.9479 H   0  0
    3.9102  -21.7902    3.1670 H   0  0
    3.1228  -23.9351    2.1692 H   0  0
    3.9674  -24.6506   -0.0404 H   0  0
    8.5911  -18.4635    1.4099 H   0  0
    8.7808  -18.4047   -0.3574 H   0  0
    8.3614  -15.9025   -0.2749 H   0  0
    8.4203  -15.9948    1.4792 H   0  0
   10.7549  -16.8550    1.3844 H   0  0
   10.7126  -16.8617   -0.3704 H   0  0
   10.5345  -14.9836   -1.4113 H   0  0
    7.5398  -23.0184   -2.2049 H   0  0
    7.1690  -24.7233   -1.9397 H   0  0
    7.5036  -23.6916   -0.5413 H   0  0
  2  1  2  0
  2 13  1  0
  3  2  2  0
  4  5  2  0
  4 22  1  0
  5  6  1  0
  5 31  1  0
  6  9  2  0
  6 32  1  0
  7  4  1  0
  7 33  1  0
  8  7  2  0
  8  9  1  0
  9 10  1  0
 10  2  1  0
 10 11  1  0
 11 12  2  0
 11 19  1  0
 12  8  1  0
 12 34  1  0
 13 14  2  0
 14 15  1  0
 14 35  1  0
 15 16  2  0
 15 36  1  0
 16 17  1  0
 16 37  1  0
 17 18  2  0
 17 38  1  0
 18 13  1  0
 18 29  1  0
 19 20  1  0
 19 39  1  0
 19 40  1  0
 20 21  1  0
 20 41  1  0
 20 42  1  0
 21 23  1  0
 21 43  1  0
 21 44  1  0
 22 26  1  0
 22 27  1  0
 22 28  1  0
 23 24  2  0
 23 25  1  0
 25 45  1  0
 29 30  1  0
 30 46  1  0
 30 47  1  0
 30 48  1  0
M  END
> <Name>
CHEMBL4089775

> <Clean Energy>
47.680698

> <chembl_id>
CHEMBL4089775

> <chembl_pref_name>
None

> <efficacy>
0.35

> <Forcefield>
MMFF

> <ForcefieldBase>
MMFF

> <ForcefieldFFML>
<?xml version="1.0" encoding="UTF-8"?>
<!DOCTYPE ffml SYSTEM "Ffml.dtd">
<ffml version="1.0">
<forcefield name="MMFF" derivedFrom="MMFF" base="MMFF">
<atomTypes>
<atomType
name="O100"
element="O"
mass="16"
annotation=""/>
<atomType
name="S101"
element="S"
mass="32.066"
annotation=""/>
<atomType
name="C102"
element="C"
mass="12.011"
annotation=""/>
<atomType
name="N103"
element="N"
mass="14.007"
annotation=""/>
<atomType
name="F104"
element="F"
mass="18.998"
annotation=""/>
<atomType
name="H105"
element="H"
mass="1.008"
annotation=""/>
</atomTypes>
<parameters>
</parameters>
</forcefield>
</ffml>

> <Initial Potential Energy>
584.73539

> <Initial RMS Gradient>
263.83635

> <Minimization Criteria>
STEEPD> Minimization exiting with gradient tolerance ( 3.0000000) satisfied.

> <CHARMm Energy>
126.27233

> <Potential Energy>
126.27233

> <RMS Gradient>
0.02925

> <Bond Energy>
4.19421

> <Angle Energy>
15.79972

> <STRBend>
0.73179

> <Dihedral Energy>
4.04537

> <OOPLane>
0.05426

> <Van der Waals Energy>
44.07607

> <Electrostatic Energy>
57.37092

> <Hydrogen Bond Energy>
0

> <Solvation Free Energy>
0

> <HasGasteigerCharges>
true

> <REMARK99>
REMARK  99  MacroMolecule created from Mol2 file
REMARK  99  CHEMBL4089775
REMARK  99  PROTEIN
REMARK  99  GASTEIGER
REMARK  99
REMARK  99

$$$$
CHEMBL4090489
  SciTegic05292516403D

 48 51  0  0  0  0            999 V2000
   40.5746  -12.3258   -0.2724 N   0  0
   39.9100  -13.5032   -0.4154 C   0  0
   39.8311  -11.2105   -0.0086 C   0  0
   38.1961  -13.2599   -0.2113 S   0  0
   38.3871  -11.5668    0.0726 C   0  0
   40.4398  -14.5797   -0.6402 O   0  0
   40.3120  -10.0989    0.1537 O   0  0
   37.4248  -10.6715    0.3379 C   0  0
   35.9971  -10.9881    0.4955 C   0  0
   33.2587  -11.6154    0.7973 C   0  0
   30.4336  -12.3266   -0.8096 C   0  0
   35.0559  -10.5623   -0.4495 C   0  0
   35.5563  -11.7181    1.6018 C   0  0
   30.8765  -11.4395    0.3639 C   0  0
   33.6922  -10.8774   -0.3019 C   0  0
   34.2009  -12.0342    1.7423 C   0  0
   31.9830  -12.0206    1.0633 O   0  0
   28.9935  -12.2255   -1.0823 N   0  0
   28.5096  -11.1960   -2.0111 C   0  0
   28.0495  -13.0307   -0.4875 C   0  0
   26.7596  -12.9316   -0.7457 N   0  0
   28.4261  -14.2659    0.6695 S   0  0
   26.7676  -14.6989    0.7918 C   0  0
   26.0249  -13.8683   -0.0427 C   0  0
   24.6258  -14.0409   -0.1065 C   0  0
   24.0089  -15.0365    0.6586 C   0  0
   24.7702  -15.8562    1.4856 C   0  0
   26.1597  -15.7013    1.5679 C   0  0
   28.0438   -9.9521   -1.2686 C   0  0
   41.5824  -12.2850   -0.3485 H   0  0
   37.6755   -9.6220    0.4757 H   0  0
   30.9998  -12.0334   -1.7026 H   0  0
   30.7310  -13.3681   -0.6382 H   0  0
   35.3738   -9.9909   -1.3193 H   0  0
   36.2582  -12.0562    2.3611 H   0  0
   31.0721  -10.4084    0.0482 H   0  0
   30.0680  -11.3728    1.1013 H   0  0
   33.0068  -10.5413   -1.0720 H   0  0
   33.8792  -12.6140    2.6046 H   0  0
   29.3135  -10.9126   -2.7012 H   0  0
   27.7016  -11.5826   -2.6448 H   0  0
   24.0422  -13.3958   -0.7550 H   0  0
   22.9302  -15.1682    0.6041 H   0  0
   24.2822  -16.6280    2.0773 H   0  0
   26.7498  -16.3438    2.2143 H   0  0
   27.6968   -9.1964   -1.9804 H   0  0
   28.8559   -9.5137   -0.6807 H   0  0
   27.2192  -10.1756   -0.5844 H   0  0
  1 30  1  0
  2  1  1  0
  3  1  1  0
  4  2  1  0
  5  3  1  0
  5  4  1  0
  6  2  2  0
  7  3  2  0
  8  5  2  0
  8 31  1  0
  9  8  1  0
 10 15  2  0
 10 16  1  0
 11 14  1  0
 11 18  1  0
 11 32  1  0
 11 33  1  0
 12  9  2  0
 12 34  1  0
 13  9  1  0
 13 35  1  0
 14 17  1  0
 14 36  1  0
 14 37  1  0
 15 12  1  0
 15 38  1  0
 16 13  2  0
 16 39  1  0
 17 10  1  0
 18 19  1  0
 18 20  1  0
 19 29  1  0
 19 40  1  0
 19 41  1  0
 20 21  2  0
 21 24  1  0
 22 20  1  0
 23 22  1  0
 23 24  2  0
 24 25  1  0
 25 26  2  0
 25 42  1  0
 26 27  1  0
 26 43  1  0
 27 28  2  0
 27 44  1  0
 28 23  1  0
 28 45  1  0
 29 46  1  0
 29 47  1  0
 29 48  1  0
M  END
> <Name>
CHEMBL4090489

> <Clean Energy>
61.604801

> <chembl_id>
CHEMBL4090489

> <chembl_pref_name>
None

> <efficacy>
0.417853751

> <Forcefield>
MMFF

> <ForcefieldBase>
MMFF

> <ForcefieldFFML>
<?xml version="1.0" encoding="UTF-8"?>
<!DOCTYPE ffml SYSTEM "Ffml.dtd">
<ffml version="1.0">
<forcefield name="MMFF" derivedFrom="MMFF" base="MMFF">
<atomTypes>
<atomType
name="N100"
element="N"
mass="14.007"
annotation=""/>
<atomType
name="C101"
element="C"
mass="12.011"
annotation=""/>
<atomType
name="S102"
element="S"
mass="32.066"
annotation=""/>
<atomType
name="O103"
element="O"
mass="16"
annotation=""/>
<atomType
name="H104"
element="H"
mass="1.008"
annotation=""/>
</atomTypes>
<parameters>
</parameters>
</forcefield>
</ffml>

> <Initial Potential Energy>
59.81816

> <Initial RMS Gradient>
29.35917

> <Minimization Criteria>
CONJUG> Minimization exiting with gradient tolerance ( 0.0100000) satisfied.

> <CHARMm Energy>
-33.81093

> <Potential Energy>
-33.81093

> <RMS Gradient>
0.00973

> <Bond Energy>
4.89365

> <Angle Energy>
24.90501

> <STRBend>
-0.33313

> <Dihedral Energy>
5.67919

> <OOPLane>
0.0231

> <Van der Waals Energy>
41.73291

> <Electrostatic Energy>
-110.71166

> <Hydrogen Bond Energy>
0

> <Solvation Free Energy>
0

> <HasGasteigerCharges>
true

> <REMARK99>
REMARK  99  MacroMolecule created from Mol2 file
REMARK  99  CHEMBL4090489
REMARK  99  PROTEIN
REMARK  99  GASTEIGER
REMARK  99
REMARK  99

$$$$
CHEMBL5083878
  SciTegic05292516403D

 55 58  0  0  0  0            999 V2000
   10.8361    1.2181   -1.0947 F   0  0
   10.2927    0.1464   -1.7381 C   0  0
   11.1826   -0.1657   -2.7269 F   0  0
    8.8065   -1.6213   -0.7438 C   0  0
    8.5537   -2.6941    0.1070 C   0  0
    9.5786   -3.1936    0.9083 C   0  0
   10.8533   -2.6221    0.8660 C   0  0
   11.1421   -1.5457    0.0066 C   0  0
   10.0897   -1.0314   -0.8030 C   0  0
    9.1649    0.5928   -2.3554 F   0  0
   12.5140   -0.8835    0.0789 C   0  0
   13.6512   -1.7988    0.1097 N   0  0
   14.8666   -1.3757    0.6344 C   0  0
   16.0910   -2.2289    0.4473 C   0  0
   14.9797   -0.3115    1.2373 O   0  0
   16.1751   -3.2317   -0.5483 C   0  0
   17.3643   -3.9585   -0.7534 C   0  0
   17.2226   -1.9484    1.2499 C   0  0
   18.3788   -2.6742    1.0264 C   0  0
   18.4516   -3.6590    0.0437 C   0  0
   19.7523   -4.1881    0.0640 N   0  0
   20.5039   -3.5341    1.0724 C   0  0
   19.6239   -2.5964    1.6558 N   0  0
   21.6665   -3.7255    1.3919 O   0  0
   20.2622   -5.2405   -0.7818 C   0  0
   19.8011   -6.6460   -0.3522 C   0  0
   20.3556   -7.0346    1.0289 C   0  0
   19.9631   -8.4579    1.4198 C   0  0
   20.3776   -9.4705    0.3581 C   0  0
   19.8266   -9.0972   -1.0135 C   0  0
   20.2235   -7.6779   -1.4109 C   0  0
    7.9918   -1.2349   -1.3574 H   0  0
    7.5587   -3.1325    0.1532 H   0  0
    9.3651   -4.0177    1.5866 H   0  0
   11.6230   -3.0080    1.5337 H   0  0
   12.6916   -0.2510   -0.7951 H   0  0
   12.5357   -0.2357    0.9629 H   0  0
   13.5585   -2.6883   -0.3561 H   0  0
   15.3351   -3.4379   -1.2052 H   0  0
   17.4209   -4.7149   -1.5281 H   0  0
   17.1893   -1.1708    2.0067 H   0  0
   19.9071   -1.9939    2.4136 H   0  0
   19.9431   -5.0287   -1.8093 H   0  0
   21.3580   -5.1935   -0.7718 H   0  0
   18.7047   -6.6562   -0.2899 H   0  0
   21.4497   -6.9493    1.0282 H   0  0
   19.9824   -6.3467    1.7960 H   0  0
   20.4281   -8.7176    2.3776 H   0  0
   18.8773   -8.5080    1.5683 H   0  0
   21.4723   -9.5227    0.3105 H   0  0
   20.0218  -10.4678    0.6402 H   0  0
   20.1946   -9.8061   -1.7637 H   0  0
   18.7329   -9.1812   -1.0039 H   0  0
   21.3103   -7.6356   -1.5591 H   0  0
   19.7619   -7.4332   -2.3750 H   0  0
  2  1  1  0
  2 10  1  0
  3  2  1  0
  4  5  2  0
  4 32  1  0
  5  6  1  0
  5 33  1  0
  6  7  2  0
  6 34  1  0
  7  8  1  0
  7 35  1  0
  8  9  2  0
  8 11  1  0
  9  2  1  0
  9  4  1  0
 11 12  1  0
 11 36  1  0
 11 37  1  0
 12 13  1  0
 12 38  1  0
 13 14  1  0
 13 15  2  0
 14 16  2  0
 16 17  1  0
 16 39  1  0
 17 20  2  0
 17 40  1  0
 18 14  1  0
 18 41  1  0
 19 18  2  0
 19 20  1  0
 20 21  1  0
 21 22  1  0
 21 25  1  0
 22 23  1  0
 22 24  2  0
 23 19  1  0
 23 42  1  0
 25 26  1  0
 25 43  1  0
 25 44  1  0
 26 27  1  0
 26 45  1  0
 27 28  1  0
 27 46  1  0
 27 47  1  0
 28 29  1  0
 28 48  1  0
 28 49  1  0
 29 30  1  0
 29 50  1  0
 29 51  1  0
 30 31  1  0
 30 52  1  0
 30 53  1  0
 31 26  1  0
 31 54  1  0
 31 55  1  0
M  END
> <Name>
CHEMBL5083878

> <Clean Energy>
42.918301

> <chembl_id>
CHEMBL5083878

> <chembl_pref_name>
None

> <efficacy>
0.151946819

> <Forcefield>
MMFF

> <ForcefieldBase>
MMFF

> <ForcefieldFFML>
<?xml version="1.0" encoding="UTF-8"?>
<!DOCTYPE ffml SYSTEM "Ffml.dtd">
<ffml version="1.0">
<forcefield name="MMFF" derivedFrom="MMFF" base="MMFF">
<atomTypes>
<atomType
name="F100"
element="F"
mass="18.998"
annotation=""/>
<atomType
name="C101"
element="C"
mass="12.011"
annotation=""/>
<atomType
name="N102"
element="N"
mass="14.007"
annotation=""/>
<atomType
name="O103"
element="O"
mass="16"
annotation=""/>
<atomType
name="H104"
element="H"
mass="1.008"
annotation=""/>
</atomTypes>
<parameters>
</parameters>
</forcefield>
</ffml>

> <Initial Potential Energy>
63.58887

> <Initial RMS Gradient>
23.87544

> <Minimization Criteria>
CONJUG> Minimization exiting with gradient tolerance ( 0.0100000) satisfied.

> <CHARMm Energy>
-2.6493

> <Potential Energy>
-2.6493

> <RMS Gradient>
0.00959

> <Bond Energy>
9.23073

> <Angle Energy>
29.31192

> <STRBend>
-1.82939

> <Dihedral Energy>
-9.40249

> <OOPLane>
0.16181

> <Van der Waals Energy>
46.47033

> <Electrostatic Energy>
-76.59221

> <Hydrogen Bond Energy>
0

> <Solvation Free Energy>
0

> <HasGasteigerCharges>
true

> <REMARK99>
REMARK  99  MacroMolecule created from Mol2 file
REMARK  99  CHEMBL5083878
REMARK  99  PROTEIN
REMARK  99  GASTEIGER
REMARK  99
REMARK  99

$$$$
CHEMBL5091419
  SciTegic05292516403D

 45 48  0  0  0  0            999 V2000
    7.3935   -9.5664   -0.0972 C   0  0
    8.5473   -8.6268   -0.5006 C   0  0
    7.6353  -10.6302    0.4662 O   0  0
    6.1454   -9.0476   -0.4205 N   0  0
    9.7367   -9.3828   -0.7197 O   0  0
   11.9055   -9.5786    0.1137 C   0  0
   10.9089   -8.7566   -0.4145 C   0  0
   11.1664   -7.4098   -0.6477 C   0  0
   12.4159   -6.8788   -0.3222 C   0  0
   13.4223   -7.6911    0.2258 C   0  0
   14.6884   -7.1769    0.5396 C   0  0
   15.6864   -8.0069    1.0643 C   0  0
   15.4209   -9.3555    1.3004 C   0  0
   14.1655   -9.8793    0.9920 C   0  0
   13.1625   -9.0610    0.4492 C   0  0
   17.0056   -7.4426    1.3301 C   0  0
   19.5582   -6.7600    0.8109 S   0  0
   20.2322   -7.2886   -0.7116 C   0  0
   19.3562   -8.0919   -1.3565 N   0  0
   18.1495   -8.3245   -0.7728 C   0  0
   18.0578   -7.5688    0.5124 C   0  0
   17.3051   -9.0548   -1.2598 O   0  0
   21.3357   -6.9709   -1.1188 O   0  0
    4.8832   -9.6232   -0.1825 C   0  0
    4.6936  -10.8562    0.4444 C   0  0
    3.4034  -11.3591    0.6455 C   0  0
    2.2985  -10.6286    0.2185 C   0  0
    2.4713   -9.3985   -0.4086 C   0  0
    3.7612   -8.8987   -0.6080 C   0  0
    0.5577  -11.3094    0.4905 Br  0  0
    8.2911   -8.0991   -1.4257 H   0  0
    8.6600   -7.9061    0.3194 H   0  0
    6.1551   -8.1548   -0.8967 H   0  0
   11.6917  -10.6341    0.2653 H   0  0
   10.4289   -6.7618   -1.1055 H   0  0
   12.6075   -5.8256   -0.5160 H   0  0
   14.9060   -6.1266    0.3561 H   0  0
   16.1896  -10.0126    1.7000 H   0  0
   13.9793  -10.9371    1.1644 H   0  0
   17.0657   -6.8408    2.2336 H   0  0
   19.6074   -8.5089   -2.2383 H   0  0
    5.5280  -11.4586    0.7900 H   0  0
    3.2794  -12.3215    1.1354 H   0  0
    1.6136   -8.8225   -0.7452 H   0  0
    3.8726   -7.9358   -1.0997 H   0  0
  1  2  1  0
  1  3  2  0
  1  4  1  0
  2  5  1  0
  2 31  1  0
  2 32  1  0
  4 24  1  0
  4 33  1  0
  5  7  1  0
  6  7  1  0
  6 15  2  0
  6 34  1  0
  7  8  2  0
  8  9  1  0
  8 35  1  0
  9 10  2  0
  9 36  1  0
 10 11  1  0
 10 15  1  0
 11 12  2  0
 11 37  1  0
 12 13  1  0
 12 16  1  0
 13 14  2  0
 13 38  1  0
 14 15  1  0
 14 39  1  0
 16 21  2  0
 16 40  1  0
 17 18  1  0
 17 21  1  0
 18 19  1  0
 18 23  2  0
 19 20  1  0
 19 41  1  0
 20 21  1  0
 20 22  2  0
 24 25  1  0
 24 29  2  0
 25 26  2  0
 25 42  1  0
 26 27  1  0
 26 43  1  0
 27 28  2  0
 27 30  1  0
 28 29  1  0
 28 44  1  0
 29 45  1  0
M  END
> <Name>
CHEMBL5091419

> <Clean Energy>
28.304399

> <chembl_id>
CHEMBL5091419

> <chembl_pref_name>
None

> <efficacy>
0.13

> <Forcefield>
MMFF

> <ForcefieldBase>
MMFF

> <ForcefieldFFML>
<?xml version="1.0" encoding="UTF-8"?>
<!DOCTYPE ffml SYSTEM "Ffml.dtd">
<ffml version="1.0">
<forcefield name="MMFF" derivedFrom="MMFF" base="MMFF">
<atomTypes>
<atomType
name="C100"
element="C"
mass="12.011"
annotation=""/>
<atomType
name="O101"
element="O"
mass="16"
annotation=""/>
<atomType
name="N102"
element="N"
mass="14.007"
annotation=""/>
<atomType
name="S103"
element="S"
mass="32.066"
annotation=""/>
<atomType
name="Br104"
element="Br"
mass="79.904"
annotation=""/>
<atomType
name="H105"
element="H"
mass="1.008"
annotation=""/>
</atomTypes>
<parameters>
</parameters>
</forcefield>
</ffml>

> <Initial Potential Energy>
77.8403

> <Initial RMS Gradient>
33.66856

> <Minimization Criteria>
CONJUG> Minimization exiting with gradient tolerance ( 0.0100000) satisfied.

> <CHARMm Energy>
7.24489

> <Potential Energy>
7.24489

> <RMS Gradient>
0.00886

> <Bond Energy>
5.62467

> <Angle Energy>
16.54145

> <STRBend>
-0.24996

> <Dihedral Energy>
11.91225

> <OOPLane>
0.06032

> <Van der Waals Energy>
54.50378

> <Electrostatic Energy>
-81.14763

> <Hydrogen Bond Energy>
0

> <Solvation Free Energy>
0

> <HasGasteigerCharges>
true

> <REMARK99>
REMARK  99  MacroMolecule created from Mol2 file
REMARK  99  CHEMBL5091419
REMARK  99  PROTEIN
REMARK  99  GASTEIGER
REMARK  99
REMARK  99

$$$$
CHEMBL3115247
  SciTegic05292516403D

 77 83  0  0  0  0            999 V2000
    2.9250  -25.5345    0.6760 C   0  0
    4.2759  -25.0901    0.3386 C   0  0
    4.4084  -24.0961   -0.6891 C   0  0
    5.6423  -23.5875   -1.1412 C   0  0
    5.3797  -25.6394    1.0318 C   0  0
    7.8420  -25.4735    1.0063 C   0  0
    6.5863  -25.1421    0.5475 C   0  0
    6.7482  -24.1585   -0.4935 C   0  0
    8.0513  -23.9220   -0.6697 N   0  0
    8.6881  -24.7300    0.2085 N   0  0
    8.2928  -26.3435    2.1386 C   0  0
   10.1392  -24.6715    0.2530 C   0  0
   10.8351  -25.6567   -0.6867 C   0  0
    8.9241  -27.6666    1.7603 C   0  0
   10.0484  -28.1161    2.4696 C   0  0
   10.6191  -29.3644    2.1981 C   0  0
   10.0872  -30.2042    1.2098 C   0  0
    8.9556  -29.7583    0.5094 C   0  0
    8.3769  -28.5094    0.7839 C   0  0
   10.6841  -31.5297    0.9468 C   0  0
   10.0148  -32.6678    1.4520 C   0  0
   10.5338  -33.9567    1.3007 C   0  0
   11.7401  -34.1420    0.6393 C   0  0
   12.4188  -33.0345    0.1269 C   0  0
   11.9100  -31.7243    0.2650 C   0  0
    1.9942  -24.7606    1.2011 N   0  0
    2.4226  -26.7966    0.4218 N   0  0
    1.1002  -26.8152    0.8054 C   0  0
    0.8682  -25.5320    1.2899 C   0  0
   -0.4030  -25.1902    1.7685 C   0  0
   -1.4118  -26.1572    1.7366 C   0  0
   -1.1587  -27.4369    1.2413 C   0  0
    0.1047  -27.7970    0.7631 C   0  0
    3.1278  -27.9035   -0.2038 C   0  0
    3.0289  -27.8612   -1.7278 C   0  0
    3.7808  -29.0291   -2.3639 C   0  0
   10.6541  -25.3221   -2.1600 C   0  0
   12.6824  -30.6265   -0.3164 C   0  0
   14.0136  -30.6556   -0.5155 N   0  0
   14.2018  -29.4473   -1.0668 N   0  0
   13.1053  -28.6981   -1.2290 N   0  0
   12.1220  -29.4522   -0.7646 N   0  0
    3.6894  -28.9886   -3.8810 C   0  0
    3.4990  -23.7003   -1.1453 H   0  0
    5.7200  -22.8260   -1.9058 H   0  0
    5.2678  -26.3513    1.8375 H   0  0
    8.9868  -25.7640    2.7611 H   0  0
    7.4434  -26.5688    2.7959 H   0  0
   10.4356  -23.6408    0.0236 H   0  0
   10.4491  -24.8621    1.2852 H   0  0
   11.9082  -25.6477   -0.4611 H   0  0
   10.4818  -26.6770   -0.5101 H   0  0
   10.4857  -27.5015    3.2535 H   0  0
   11.4844  -29.6821    2.7747 H   0  0
    8.5151  -30.3835   -0.2647 H   0  0
    7.4991  -28.2029    0.2198 H   0  0
    9.0744  -32.5432    1.9896 H   0  0
   10.0008  -34.8114    1.7086 H   0  0
   12.1568  -35.1413    0.5233 H   0  0
   13.3633  -33.1947   -0.3923 H   0  0
   -0.5944  -24.1925    2.1475 H   0  0
   -2.4024  -25.9015    2.0992 H   0  0
   -1.9594  -28.1709    1.2214 H   0  0
    0.2855  -28.7933    0.3742 H   0  0
    4.1705  -27.8837    0.1245 H   0  0
    2.7001  -28.8340    0.1866 H   0  0
    1.9751  -27.8921   -2.0318 H   0  0
    3.4349  -26.9143   -2.1040 H   0  0
    4.8355  -29.0001   -2.0660 H   0  0
    3.3670  -29.9781   -2.0039 H   0  0
   11.2568  -25.9988   -2.7745 H   0  0
   10.9726  -24.2970   -2.3737 H   0  0
    9.6112  -25.4346   -2.4706 H   0  0
   15.1197  -29.1160   -1.3492 H   0  0
    4.2319  -29.8336   -4.3164 H   0  0
    4.1254  -28.0652   -4.2757 H   0  0
    2.6478  -29.0463   -4.2127 H   0  0
  1 26  2  0
  2  1  1  0
  2  3  1  0
  3  4  2  0
  3 44  1  0
  4  8  1  0
  4 45  1  0
  5  2  2  0
  5 46  1  0
  6  7  2  0
  6 11  1  0
  7  5  1  0
  7  8  1  0
  8  9  2  0
  9 10  1  0
 10  6  1  0
 10 12  1  0
 11 14  1  0
 11 47  1  0
 11 48  1  0
 12 13  1  0
 12 49  1  0
 12 50  1  0
 13 37  1  0
 13 51  1  0
 13 52  1  0
 14 15  2  0
 15 16  1  0
 15 53  1  0
 16 17  2  0
 16 54  1  0
 17 18  1  0
 17 20  1  0
 18 19  2  0
 18 55  1  0
 19 14  1  0
 19 56  1  0
 20 21  2  0
 21 22  1  0
 21 57  1  0
 22 23  2  0
 22 58  1  0
 23 24  1  0
 23 59  1  0
 24 25  2  0
 24 60  1  0
 25 20  1  0
 25 38  1  0
 26 29  1  0
 27  1  1  0
 27 34  1  0
 28 27  1  0
 28 29  2  0
 29 30  1  0
 30 31  2  0
 30 61  1  0
 31 32  1  0
 31 62  1  0
 32 33  2  0
 32 63  1  0
 33 28  1  0
 33 64  1  0
 34 35  1  0
 34 65  1  0
 34 66  1  0
 35 36  1  0
 35 67  1  0
 35 68  1  0
 36 43  1  0
 36 69  1  0
 36 70  1  0
 37 71  1  0
 37 72  1  0
 37 73  1  0
 38 39  2  0
 39 40  1  0
 40 41  1  0
 40 74  1  0
 41 42  2  0
 42 38  1  0
 43 75  1  0
 43 76  1  0
 43 77  1  0
M  END
> <Name>
CHEMBL3115247

> <Clean Energy>
102.609001

> <chembl_id>
CHEMBL3115247

> <chembl_pref_name>
None

> <efficacy>
0.4

> <Forcefield>
MMFF

> <ForcefieldBase>
MMFF

> <ForcefieldFFML>
<?xml version="1.0" encoding="UTF-8"?>
<!DOCTYPE ffml SYSTEM "Ffml.dtd">
<ffml version="1.0">
<forcefield name="MMFF" derivedFrom="MMFF" base="MMFF">
<atomTypes>
<atomType
name="C100"
element="C"
mass="12.011"
annotation=""/>
<atomType
name="N101"
element="N"
mass="14.007"
annotation=""/>
<atomType
name="H102"
element="H"
mass="1.008"
annotation=""/>
</atomTypes>
<parameters>
</parameters>
</forcefield>
</ffml>

> <Initial Potential Energy>
264.61979

> <Initial RMS Gradient>
37.50261

> <Minimization Criteria>
STEEPD> Minimization exiting with gradient tolerance ( 3.0000000) satisfied.

> <CHARMm Energy>
106.49634

> <Potential Energy>
106.49634

> <RMS Gradient>
0.03698

> <Bond Energy>
11.01558

> <Angle Energy>
18.34022

> <STRBend>
-2.08312

> <Dihedral Energy>
2.71996

> <OOPLane>
0.14196

> <Van der Waals Energy>
69.96786

> <Electrostatic Energy>
6.39388

> <Hydrogen Bond Energy>
0

> <Solvation Free Energy>
0

> <HasGasteigerCharges>
true

> <REMARK99>
REMARK  99  MacroMolecule created from Mol2 file
REMARK  99  CHEMBL3115247
REMARK  99  PROTEIN
REMARK  99  GASTEIGER
REMARK  99
REMARK  99

$$$$
CHEMBL183909
  SciTegic05292516403D

 48 50  0  0  0  0            999 V2000
   10.5089   -1.7783    0.3711 C   0  0
   10.1507   -3.1913    0.6447 C   0  0
    9.5853   -0.9589   -0.1658 C   0  0
    7.9479   -2.7310   -0.2521 C   0  0
    8.2756   -1.4600   -0.5140 C   0  0
    8.8798   -3.6051    0.3517 O   0  0
   11.8398   -1.3669    0.6928 C   0  0
   12.9051   -0.9869    0.9618 N   0  0
    6.6425   -3.3397   -0.5874 C   0  0
   -0.3733   -5.3819    0.1231 N   0  0
   10.9824   -3.9645    1.1160 O   0  0
    9.8850    0.7110   -0.5796 S   0  0
    6.5505   -4.7116   -0.8659 C   0  0
    5.4594   -2.5845   -0.6219 C   0  0
    4.1489   -4.5479   -1.1727 C   0  0
    5.3177   -5.3063   -1.1640 C   0  0
    4.2266   -3.1790   -0.9244 C   0  0
    2.9952   -5.2336   -1.4459 O   0  0
    0.8315   -5.8204   -0.6052 C   0  0
    1.8045   -4.6733   -0.8789 C   0  0
   -1.2976   -4.6348   -0.7517 C   0  0
   -1.0618   -6.5537    0.6994 C   0  0
    9.8498    1.4906    1.0549 C   0  0
   -2.2855   -6.1396    1.5175 C   0  0
   -2.5302   -4.1552    0.0174 C   0  0
   -3.2571   -5.3167    0.6821 C   0  0
    7.5873   -0.7871   -1.0179 H   0  0
    7.4383   -5.3411   -0.8562 H   0  0
    5.4678   -1.5196   -0.4018 H   0  0
    5.2710   -6.3726   -1.3716 H   0  0
    3.3430   -2.5487   -0.9565 H   0  0
    1.3758   -6.5616   -0.0039 H   0  0
    0.5749   -6.3342   -1.5412 H   0  0
    1.3871   -3.9550   -1.5920 H   0  0
    2.0125   -4.1679    0.0733 H   0  0
   -0.8003   -3.7481   -1.1592 H   0  0
   -1.6118   -5.2524   -1.6034 H   0  0
   -1.3638   -7.2543   -0.0904 H   0  0
   -0.3789   -7.0917    1.3684 H   0  0
    9.9595    2.5720    0.9374 H   0  0
   10.6664    1.1278    1.6835 H   0  0
    8.8962    1.2906    1.5514 H   0  0
   -2.7928   -7.0317    1.9021 H   0  0
   -1.9641   -5.5542    2.3883 H   0  0
   -2.2262   -3.4280    0.7811 H   0  0
   -3.2123   -3.6351   -0.6648 H   0  0
   -4.0717   -4.9415    1.3112 H   0  0
   -3.7103   -5.9540   -0.0871 H   0  0
  2  1  1  0
  3  1  2  0
  4  5  2  0
  5  3  1  0
  5 27  1  0
  6  2  1  0
  6  4  1  0
  7  1  1  0
  8  7  3  0
  9  4  1  0
 10 19  1  0
 11  2  2  0
 12  3  1  0
 13  9  1  0
 13 28  1  0
 14  9  2  0
 14 29  1  0
 15 17  2  0
 16 13  2  0
 16 15  1  0
 16 30  1  0
 17 14  1  0
 17 31  1  0
 18 15  1  0
 19 20  1  0
 19 32  1  0
 19 33  1  0
 20 18  1  0
 20 34  1  0
 20 35  1  0
 21 10  1  0
 21 36  1  0
 21 37  1  0
 22 10  1  0
 22 38  1  0
 22 39  1  0
 23 12  1  0
 23 40  1  0
 23 41  1  0
 23 42  1  0
 24 22  1  0
 24 43  1  0
 24 44  1  0
 25 21  1  0
 25 26  1  0
 25 45  1  0
 25 46  1  0
 26 24  1  0
 26 47  1  0
 26 48  1  0
M  END
> <Name>
CHEMBL183909

> <Clean Energy>
39.9776

> <chembl_id>
CHEMBL183909

> <chembl_pref_name>
None

> <efficacy>
0.16

> <Forcefield>
MMFF

> <ForcefieldBase>
MMFF

> <ForcefieldFFML>
<?xml version="1.0" encoding="UTF-8"?>
<!DOCTYPE ffml SYSTEM "Ffml.dtd">
<ffml version="1.0">
<forcefield name="MMFF" derivedFrom="MMFF" base="MMFF">
<atomTypes>
<atomType
name="C100"
element="C"
mass="12.011"
annotation=""/>
<atomType
name="O101"
element="O"
mass="16"
annotation=""/>
<atomType
name="N102"
element="N"
mass="14.007"
annotation=""/>
<atomType
name="S103"
element="S"
mass="32.066"
annotation=""/>
<atomType
name="H104"
element="H"
mass="1.008"
annotation=""/>
</atomTypes>
<parameters>
</parameters>
</forcefield>
</ffml>

> <Initial Potential Energy>
155.29959

> <Initial RMS Gradient>
21.68455

> <Minimization Criteria>
CONJUG> Minimization exiting with gradient tolerance ( 0.0100000) satisfied.

> <CHARMm Energy>
37.91791

> <Potential Energy>
37.91791

> <RMS Gradient>
0.00908

> <Bond Energy>
4.46971

> <Angle Energy>
19.82913

> <STRBend>
0.38382

> <Dihedral Energy>
-10.74164

> <OOPLane>
0.02332

> <Van der Waals Energy>
50.20824

> <Electrostatic Energy>
-26.25466

> <Hydrogen Bond Energy>
0

> <Solvation Free Energy>
0

> <HasGasteigerCharges>
true

> <REMARK99>
REMARK  99  MacroMolecule created from Mol2 file
REMARK  99  CHEMBL183909
REMARK  99  PROTEIN
REMARK  99  GASTEIGER
REMARK  99
REMARK  99

$$$$
CHEMBL1946566
  SciTegic05292516403D

 55 58  0  0  0  0            999 V2000
    8.0397  -16.0749    0.0521 C   0  0
    7.7872  -17.4690    0.0939 C   0  0
    8.8307  -18.3787   -0.2403 C   0  0
    9.2805  -15.5687   -0.3458 C   0  0
   10.2516  -16.4761   -0.7167 C   0  0
   10.0538  -17.8627   -0.6483 C   0  0
   11.2426  -18.4773   -1.1047 N   0  0
   12.1178  -17.4721   -1.5678 C   0  0
   11.5235  -16.2431   -1.2498 N   0  0
   13.1821  -17.6288   -2.1435 O   0  0
   12.2037  -14.9823   -1.3763 C   0  0
   13.0579  -14.7063   -0.1567 C   0  0
   14.2715  -15.3905    0.0259 C   0  0
   15.0286  -15.2063    1.1832 C   0  0
   14.5905  -14.3194    2.1597 C   0  0
   13.3950  -13.6255    1.9907 C   0  0
   12.6272  -13.8227    0.8396 C   0  0
   11.5830  -19.8765   -1.1729 C   0  0
   12.6036  -20.3304   -0.1288 C   0  0
   12.1850  -21.0963    0.9670 C   0  0
   13.1077  -21.5353    1.9248 C   0  0
   14.4635  -21.2061    1.8146 C   0  0
   14.9137  -20.4500    0.7300 C   0  0
   13.9818  -20.0154   -0.2302 C   0  0
   16.2019  -19.9667    0.6728 O   0  0
   17.1785  -20.8615    0.1062 C   0  0  1  0  0  0
   17.4575  -20.4632   -1.3532 C   0  0
   18.4987  -21.1095   -1.9294 O   0  0
   16.7756  -19.6664   -1.9871 O   0  0
   18.4395  -20.7086    0.9524 C   0  0
   15.5256  -14.0800    3.5841 Cl  0  0
    6.3834  -17.9484    0.4462 C   0  0
    5.8122  -17.2666    1.4834 F   0  0
    6.3631  -19.2642    0.8032 F   0  0
    5.4966  -17.8237   -0.5872 F   0  0
   15.5318  -21.7335    3.0627 Cl  0  0
    7.2444  -15.3757    0.3143 H   0  0
    8.6502  -19.4487   -0.2146 H   0  0
    9.4557  -14.5020   -0.3966 H   0  0
   12.8556  -15.0151   -2.2581 H   0  0
   11.4818  -14.1769   -1.5495 H   0  0
   14.6286  -16.0944   -0.7256 H   0  0
   15.9455  -15.7718    1.3140 H   0  0
   13.0503  -12.9372    2.7564 H   0  0
   11.6872  -13.2882    0.7323 H   0  0
   10.6705  -20.4791   -1.1029 H   0  0
   12.0115  -20.0762   -2.1636 H   0  0
   11.1357  -21.3572    1.0890 H   0  0
   12.7560  -22.1205    2.7715 H   0  0
   14.3418  -19.4074   -1.0589 H   0  0
   16.8255  -21.8998    0.1232 H   0  0
   18.9355  -21.7773   -1.3707 H   0  0
   19.2072  -21.4383    0.6796 H   0  0
   18.2174  -20.8324    2.0166 H   0  0
   18.8683  -19.7067    0.8336 H   0  0
  1  2  2  0
  1 37  1  0
  2  3  1  0
  2 32  1  0
  3  6  2  0
  3 38  1  0
  4  1  1  0
  4 39  1  0
  5  4  2  0
  5  6  1  0
  6  7  1  0
  7  8  1  0
  7 18  1  0
  8  9  1  0
  8 10  2  0
  9  5  1  0
  9 11  1  0
 11 12  1  0
 11 40  1  0
 11 41  1  0
 12 13  2  0
 13 14  1  0
 13 42  1  0
 14 15  2  0
 14 43  1  0
 15 16  1  0
 15 31  1  0
 16 17  2  0
 16 44  1  0
 17 12  1  0
 17 45  1  0
 18 19  1  0
 18 46  1  0
 18 47  1  0
 19 20  2  0
 20 21  1  0
 20 48  1  0
 21 22  2  0
 21 49  1  0
 22 23  1  0
 22 36  1  0
 23 24  2  0
 23 25  1  0
 24 19  1  0
 24 50  1  0
 25 26  1  0
 26 27  1  0
 26 30  1  0
 26 51  1  0
 27 28  1  0
 27 29  2  0
 28 52  1  0
 30 53  1  0
 30 54  1  0
 30 55  1  0
 32 33  1  0
 32 34  1  0
 32 35  1  0
M  END
> <Name>
CHEMBL1946566

> <Clean Energy>
74.199501

> <chembl_id>
CHEMBL1946566

> <chembl_pref_name>
None

> <efficacy>
0.17

> <Forcefield>
MMFF

> <ForcefieldBase>
MMFF

> <ForcefieldFFML>
<?xml version="1.0" encoding="UTF-8"?>
<!DOCTYPE ffml SYSTEM "Ffml.dtd">
<ffml version="1.0">
<forcefield name="MMFF" derivedFrom="MMFF" base="MMFF">
<atomTypes>
<atomType
name="C100"
element="C"
mass="12.011"
annotation=""/>
<atomType
name="N101"
element="N"
mass="14.007"
annotation=""/>
<atomType
name="O102"
element="O"
mass="16"
annotation=""/>
<atomType
name="Cl103"
element="Cl"
mass="35.453"
annotation=""/>
<atomType
name="F104"
element="F"
mass="18.998"
annotation=""/>
<atomType
name="H105"
element="H"
mass="1.008"
annotation=""/>
</atomTypes>
<parameters>
</parameters>
</forcefield>
</ffml>

> <Initial Potential Energy>
222.609

> <Initial RMS Gradient>
31.99403

> <Minimization Criteria>
STEEPD> Minimization exiting with gradient tolerance ( 3.0000000) satisfied.

> <CHARMm Energy>
75.65437

> <Potential Energy>
75.65437

> <RMS Gradient>
0.06645

> <Bond Energy>
9.21778

> <Angle Energy>
33.77582

> <STRBend>
-1.24279

> <Dihedral Energy>
6.46288

> <OOPLane>
0.34223

> <Van der Waals Energy>
54.39665

> <Electrostatic Energy>
-27.2982

> <Hydrogen Bond Energy>
0

> <Solvation Free Energy>
0

> <HasGasteigerCharges>
true

> <REMARK99>
REMARK  99  MacroMolecule created from Mol2 file
REMARK  99  CHEMBL1946566
REMARK  99  PROTEIN
REMARK  99  GASTEIGER
REMARK  99
REMARK  99

$$$$
CHEMBL4571498
  SciTegic05292516403D

 66 68  0  0  0  0            999 V2000
    4.6449  -11.1919    0.8277 O   0  0
    4.4487  -10.3757   -0.3505 S   0  0
    4.6897  -10.9007   -1.6799 O   0  0
   15.6632  -10.6376   -0.1223 C   0  0
   14.1717  -10.2233   -0.0301 C   0  0  1  0  0  0
   14.0481   -8.7131   -0.3252 C   0  0
   13.1301   -7.9874    0.6721 C   0  0
   12.2453   -6.9478   -0.0183 C   0  0
   11.2323   -6.3408    0.9544 C   0  0
   10.2680   -5.4020    0.2299 C   0  0
    9.2398   -4.8120    1.1811 C   0  0
   16.5349  -10.1640    0.6027 O   0  0
   16.0008  -11.5445   -1.0694 O   0  0
   13.0963  -11.2025   -1.1686 S   0  0
   10.3526  -10.2476   -2.0980 S   0  0
   11.4514  -10.6340   -0.8308 C   0  0
   10.9615  -10.5487    0.3843 N   0  0
    9.6162  -10.1689    0.3322 C   0  0
    9.0970   -9.9487   -0.9463 C   0  0
    8.7437  -10.0021    1.4323 C   0  0
    7.4001   -9.6226    1.2324 C   0  0
    6.9060   -9.3832   -0.0477 C   0  0
    7.7483   -9.5602   -1.1580 C   0  0
    5.5020   -9.0197   -0.2268 N   0  0
    2.8579   -9.6162   -0.2925 C   0  0
    2.3907   -9.0932    0.9105 C   0  0
    1.1299   -8.4918    0.9515 C   0  0
    0.3078   -8.4095   -0.1943 C   0  0
    0.8080   -8.9597   -1.3883 C   0  0
    2.0699   -9.5612   -1.4403 C   0  0
   -1.0796   -7.7430   -0.1048 C   0  0
   -0.9174   -6.2754    0.3469 C   0  0
   -1.9531   -8.4954    0.9221 C   0  0
   -1.8526   -7.7271   -1.4433 C   0  0
   13.8665  -10.4694    0.9937 H   0  0
   15.0307   -8.2269   -0.2690 H   0  0
   13.7162   -8.5457   -1.3577 H   0  0
   12.4970   -8.6958    1.2134 H   0  0
   13.7488   -7.4953    1.4330 H   0  0
   12.8688   -6.1566   -0.4505 H   0  0
   11.7043   -7.4198   -0.8461 H   0  0
   10.6607   -7.1416    1.4390 H   0  0
   11.7598   -5.7969    1.7470 H   0  0
   10.8270   -4.5902   -0.2488 H   0  0
    9.7454   -5.9489   -0.5633 H   0  0
    8.5585   -4.1493    0.6383 H   0  0
    9.7237   -4.2294    1.9709 H   0  0
    8.6425   -5.6003    1.6505 H   0  0
   15.2273  -11.8793   -1.5653 H   0  0
    9.1168  -10.1845    2.4371 H   0  0
    6.7447   -9.5213    2.0952 H   0  0
    7.3785   -9.4213   -2.1691 H   0  0
    5.3986   -8.4747   -1.0844 H   0  0
    2.9970   -9.1482    1.8126 H   0  0
    0.7914   -8.0872    1.9038 H   0  0
    0.2303   -8.9394   -2.3080 H   0  0
    2.4262   -9.9816   -2.3791 H   0  0
   -1.8867   -5.7651    0.3879 H   0  0
   -0.2751   -5.7178   -0.3453 H   0  0
   -0.4720   -6.1959    1.3447 H   0  0
   -2.9608   -8.0668    0.9737 H   0  0
   -1.5350   -8.4497    1.9335 H   0  0
   -2.0548   -9.5539    0.6555 H   0  0
   -2.8273   -7.2369   -1.3315 H   0  0
   -2.0443   -8.7415   -1.8125 H   0  0
   -1.3054   -7.1793   -2.2197 H   0  0
  2  1  2  0
  2 24  1  0
  2 25  1  0
  3  2  2  0
  4  5  1  0
  4 12  2  0
  4 13  1  0
  5  6  1  0
  5 14  1  0
  5 35  1  0
  6  7  1  0
  6 36  1  0
  6 37  1  0
  7  8  1  0
  7 38  1  0
  7 39  1  0
  8  9  1  0
  8 40  1  0
  8 41  1  0
  9 10  1  0
  9 42  1  0
  9 43  1  0
 10 11  1  0
 10 44  1  0
 10 45  1  0
 11 46  1  0
 11 47  1  0
 11 48  1  0
 13 49  1  0
 14 16  1  0
 15 16  1  0
 15 19  1  0
 16 17  2  0
 17 18  1  0
 18 19  1  0
 18 20  2  0
 19 23  2  0
 20 21  1  0
 20 50  1  0
 21 22  2  0
 21 51  1  0
 22 23  1  0
 22 24  1  0
 23 52  1  0
 24 53  1  0
 25 26  1  0
 25 30  2  0
 26 27  2  0
 26 54  1  0
 27 28  1  0
 27 55  1  0
 28 29  2  0
 28 31  1  0
 29 30  1  0
 29 56  1  0
 30 57  1  0
 31 32  1  0
 31 33  1  0
 31 34  1  0
 32 58  1  0
 32 59  1  0
 32 60  1  0
 33 61  1  0
 33 62  1  0
 33 63  1  0
 34 64  1  0
 34 65  1  0
 34 66  1  0
M  END
> <Name>
CHEMBL4571498

> <Clean Energy>
56.0979

> <chembl_id>
CHEMBL4571498

> <chembl_pref_name>
None

> <efficacy>
0.284900285

> <Forcefield>
MMFF

> <ForcefieldBase>
MMFF

> <ForcefieldFFML>
<?xml version="1.0" encoding="UTF-8"?>
<!DOCTYPE ffml SYSTEM "Ffml.dtd">
<ffml version="1.0">
<forcefield name="MMFF" derivedFrom="MMFF" base="MMFF">
<atomTypes>
<atomType
name="O100"
element="O"
mass="16"
annotation=""/>
<atomType
name="S101"
element="S"
mass="32.066"
annotation=""/>
<atomType
name="C102"
element="C"
mass="12.011"
annotation=""/>
<atomType
name="N103"
element="N"
mass="14.007"
annotation=""/>
<atomType
name="H104"
element="H"
mass="1.008"
annotation=""/>
</atomTypes>
<parameters>
</parameters>
</forcefield>
</ffml>

> <Initial Potential Energy>
146.18813

> <Initial RMS Gradient>
30.23438

> <Minimization Criteria>
STEEPD> Minimization exiting with gradient tolerance ( 3.0000000) satisfied.

> <CHARMm Energy>
3.11614

> <Potential Energy>
3.11614

> <RMS Gradient>
0.17749

> <Bond Energy>
10.0365

> <Angle Energy>
16.44516

> <STRBend>
0.16614

> <Dihedral Energy>
0.02663

> <OOPLane>
0.06832

> <Van der Waals Energy>
50.2294

> <Electrostatic Energy>
-73.85602

> <Hydrogen Bond Energy>
0

> <Solvation Free Energy>
0

> <HasGasteigerCharges>
true

> <REMARK99>
REMARK  99  MacroMolecule created from Mol2 file
REMARK  99  CHEMBL4571498
REMARK  99  PROTEIN
REMARK  99  GASTEIGER
REMARK  99
REMARK  99

$$$$
CHEMBL1956366
  SciTegic05292516403D

 35 36  0  0  0  0            999 V2000
   19.3424   -8.1210    0.2417 C   0  0
   19.2974   -9.0832    1.2547 C   0  0
   20.4295   -9.8500    1.5507 C   0  0
   21.6218   -9.6625    0.8450 C   0  0
   21.6903   -8.6995   -0.1557 C   0  0
   20.5515   -7.9454   -0.4589 C   0  0
   22.7771   -8.4239   -0.9315 O   0  0
   24.0833   -8.7978   -0.4649 C   0  0  1  0  0  0
   24.4913  -10.1067   -1.1562 C   0  0
   25.7008  -10.7661   -0.5364 C   0  0
   26.9455  -10.7125   -1.1811 C   0  0
   28.0733  -11.2879   -0.5937 C   0  0
   27.9659  -11.9234    0.6420 C   0  0
   26.7337  -11.9910    1.2870 C   0  0
   25.6048  -11.4169    0.7003 C   0  0
   25.0418   -7.6687   -0.8709 C   0  0
   26.2342   -7.6947   -0.2231 O   0  0
   24.7909   -6.7928   -1.6874 O   0  0
   17.8700   -9.3824    2.1774 Cl  0  0
   18.1399   -7.2866   -0.1052 C   0  0
   18.3660   -6.4025   -1.1206 F   0  0
   17.0715   -8.0291   -0.5120 F   0  0
   17.6976   -6.5262    0.9362 F   0  0
   20.3868  -10.6065    2.3320 H   0  0
   22.4645  -10.2976    1.0918 H   0  0
   20.6155   -7.2023   -1.2556 H   0  0
   24.1074   -8.8486    0.6305 H   0  0
   23.6608  -10.8244   -1.1333 H   0  0
   24.6693   -9.9250   -2.2248 H   0  0
   27.0413  -10.2130   -2.1441 H   0  0
   29.0376  -11.2470   -1.0992 H   0  0
   28.8434  -12.3762    1.0977 H   0  0
   26.6426  -12.4946    2.2457 H   0  0
   24.6506  -11.4953    1.2161 H   0  0
   26.3680   -8.4514    0.3818 H   0  0
  1  2  2  0
  1 20  1  0
  2  3  1  0
  2 19  1  0
  3  4  2  0
  3 24  1  0
  4  5  1  0
  4 25  1  0
  5  6  2  0
  5  7  1  0
  6  1  1  0
  6 26  1  0
  7  8  1  0
  8  9  1  0
  8 16  1  0
  8 27  1  0
  9 10  1  0
  9 28  1  0
  9 29  1  0
 10 11  2  0
 11 12  1  0
 11 30  1  0
 12 13  2  0
 12 31  1  0
 13 14  1  0
 13 32  1  0
 14 15  2  0
 14 33  1  0
 15 10  1  0
 15 34  1  0
 16 17  1  0
 16 18  2  0
 17 35  1  0
 20 21  1  0
 20 22  1  0
 20 23  1  0
M  END
> <Name>
CHEMBL1956366

> <Clean Energy>
24.249201

> <chembl_id>
CHEMBL1956366

> <chembl_pref_name>
None

> <efficacy>
0.199430199

> <Forcefield>
MMFF

> <ForcefieldBase>
MMFF

> <ForcefieldFFML>
<?xml version="1.0" encoding="UTF-8"?>
<!DOCTYPE ffml SYSTEM "Ffml.dtd">
<ffml version="1.0">
<forcefield name="MMFF" derivedFrom="MMFF" base="MMFF">
<atomTypes>
<atomType
name="C100"
element="C"
mass="12.011"
annotation=""/>
<atomType
name="O101"
element="O"
mass="16"
annotation=""/>
<atomType
name="Cl102"
element="Cl"
mass="35.453"
annotation=""/>
<atomType
name="F103"
element="F"
mass="18.998"
annotation=""/>
<atomType
name="H104"
element="H"
mass="1.008"
annotation=""/>
</atomTypes>
<parameters>
</parameters>
</forcefield>
</ffml>

> <Initial Potential Energy>
120.24536

> <Initial RMS Gradient>
31.33381

> <Minimization Criteria>
CONJUG> Minimization exiting with gradient tolerance ( 0.0100000) satisfied.

> <CHARMm Energy>
54.40371

> <Potential Energy>
54.40371

> <RMS Gradient>
0.00926

> <Bond Energy>
4.07108

> <Angle Energy>
10.37889

> <STRBend>
0.17116

> <Dihedral Energy>
0.26038

> <OOPLane>
0.01995

> <Van der Waals Energy>
38.98184

> <Electrostatic Energy>
0.5204

> <Hydrogen Bond Energy>
0

> <Solvation Free Energy>
0

> <HasGasteigerCharges>
true

> <REMARK99>
REMARK  99  MacroMolecule created from Mol2 file
REMARK  99  CHEMBL1956366
REMARK  99  PROTEIN
REMARK  99  GASTEIGER
REMARK  99
REMARK  99

$$$$
CHEMBL4075456
  SciTegic05292516403D

 44 47  0  0  0  0            999 V2000
   42.4982  -13.4532    1.7654 O   0  0
   42.0187  -13.4743    0.3964 S   0  0
   42.9040  -13.7239   -0.7265 O   0  0
   37.7285  -10.1112    0.7923 C   0  0
   37.8944  -11.3586    1.3795 C   0  0
   39.1042  -12.0517    1.2651 C   0  0
   38.7813   -9.4976    0.1120 C   0  0
   40.0152  -10.1718   -0.0017 C   0  0
   40.1493  -11.4604    0.5322 C   0  0
   41.4088  -11.8934    0.1504 N   0  0
   42.1796  -10.8185   -0.2917 C   0  0
   41.2809   -9.7923   -0.5282 C   0  0
   40.6888  -14.6592    0.2684 C   0  0
   43.6775  -10.8507   -0.4751 C   0  0
   44.3521   -9.4819   -0.2460 C   0  0
   45.8777   -9.5755   -0.3261 C   0  0
   36.2105   -9.3064    0.9222 Cl  0  0
   46.5628   -8.2501   -0.0492 C   0  0
   47.0283   -7.9262    1.0332 O   0  0
   46.6278   -7.4360   -1.1274 O   0  0
   39.8716  -14.6996   -0.8776 C   0  0
   40.5174  -15.5699    1.3232 C   0  0
   39.4983  -16.5298    1.2804 C   0  0
   38.6561  -16.5775    0.1600 C   0  0
   38.8588  -15.6758   -0.8858 C   0  0
   37.8857  -16.0160   -1.7980 N   0  0
   37.1627  -17.0556   -1.2817 C   0  0
   37.6038  -17.4145   -0.1002 N   0  0
   37.0799  -11.8097    1.9406 H   0  0
   39.2025  -13.0154    1.7542 H   0  0
   38.6613   -8.5021   -0.3059 H   0  0
   41.5238   -8.8230   -0.9472 H   0  0
   44.1216  -11.5618    0.2303 H   0  0
   43.9021  -11.2024   -1.4890 H   0  0
   43.9952   -8.7577   -0.9888 H   0  0
   44.0644   -9.0847    0.7361 H   0  0
   46.2537  -10.2973    0.4092 H   0  0
   46.2005   -9.9441   -1.3066 H   0  0
   46.2291   -7.8137   -1.9327 H   0  0
   40.0150  -14.0230   -1.7135 H   0  0
   41.1751  -15.5420    2.1914 H   0  0
   39.3515  -17.2377    2.0913 H   0  0
   37.7123  -15.5924   -2.6980 H   0  0
   36.3334  -17.5057   -1.8119 H   0  0
  2  1  2  0
  2 13  1  0
  3  2  2  0
  4  5  2  0
  4 17  1  0
  5  6  1  0
  5 29  1  0
  6  9  2  0
  6 30  1  0
  7  4  1  0
  7 31  1  0
  8  7  2  0
  8  9  1  0
  9 10  1  0
 10  2  1  0
 10 11  1  0
 11 12  2  0
 11 14  1  0
 12  8  1  0
 12 32  1  0
 13 21  2  0
 14 15  1  0
 14 33  1  0
 14 34  1  0
 15 16  1  0
 15 35  1  0
 15 36  1  0
 16 18  1  0
 16 37  1  0
 16 38  1  0
 18 19  2  0
 18 20  1  0
 20 39  1  0
 21 40  1  0
 22 13  1  0
 22 23  2  0
 22 41  1  0
 23 42  1  0
 24 23  1  0
 24 25  2  0
 25 21  1  0
 25 26  1  0
 26 27  1  0
 26 43  1  0
 27 28  2  0
 27 44  1  0
 28 24  1  0
M  END
> <Name>
CHEMBL4075456

> <Clean Energy>
55.704399

> <chembl_id>
CHEMBL4075456

> <chembl_pref_name>
None

> <efficacy>
0.42

> <Forcefield>
MMFF

> <ForcefieldBase>
MMFF

> <ForcefieldFFML>
<?xml version="1.0" encoding="UTF-8"?>
<!DOCTYPE ffml SYSTEM "Ffml.dtd">
<ffml version="1.0">
<forcefield name="MMFF" derivedFrom="MMFF" base="MMFF">
<atomTypes>
<atomType
name="O100"
element="O"
mass="16"
annotation=""/>
<atomType
name="S101"
element="S"
mass="32.066"
annotation=""/>
<atomType
name="C102"
element="C"
mass="12.011"
annotation=""/>
<atomType
name="N103"
element="N"
mass="14.007"
annotation=""/>
<atomType
name="Cl104"
element="Cl"
mass="35.453"
annotation=""/>
<atomType
name="H105"
element="H"
mass="1.008"
annotation=""/>
</atomTypes>
<parameters>
</parameters>
</forcefield>
</ffml>

> <Initial Potential Energy>
600.55026

> <Initial RMS Gradient>
331.31337

> <Minimization Criteria>
CONJUG> Minimization exiting with gradient tolerance ( 0.0100000) satisfied.

> <CHARMm Energy>
98.30522

> <Potential Energy>
98.30522

> <RMS Gradient>
0.00872

> <Bond Energy>
5.71835

> <Angle Energy>
12.95495

> <STRBend>
0.54325

> <Dihedral Energy>
-3.17246

> <OOPLane>
0.09464

> <Van der Waals Energy>
34.59138

> <Electrostatic Energy>
47.57511

> <Hydrogen Bond Energy>
0

> <Solvation Free Energy>
0

> <HasGasteigerCharges>
true

> <REMARK99>
REMARK  99  MacroMolecule created from Mol2 file
REMARK  99  CHEMBL4075456
REMARK  99  PROTEIN
REMARK  99  GASTEIGER
REMARK  99
REMARK  99

$$$$
CHEMBL2312702
  SciTegic05292516403D

 51 53  0  0  0  0            999 V2000
   -2.1689  -15.8884    1.4142 C   0  0
   -2.3923  -17.2584    1.3822 C   0  0
   -1.3976  -18.1110    0.9034 C   0  0
   -0.1557  -17.6110    0.4445 C   0  0
    0.0790  -16.2129    0.4901 C   0  0
   -0.9457  -15.3740    0.9752 C   0  0
    1.3467  -15.5930    0.0592 C   0  0
    2.4825  -15.6219    0.8832 C   0  0
    3.6971  -15.0481    0.4735 C   0  0
    3.8000  -14.4350   -0.7737 C   0  0
    2.6648  -14.3725   -1.5867 C   0  0
    1.4522  -14.9464   -1.1796 C   0  0
    4.9206  -13.8528   -1.3037 O   0  0
    6.2103  -14.2098   -0.7813 C   0  0  2  0  0  0
    7.2423  -13.1594   -1.2429 C   0  0
    8.3802  -13.1471   -0.4957 O   0  0
    7.1032  -12.3915   -2.1845 O   0  0
    6.6298  -15.5848   -1.3336 C   0  0
    7.6622  -16.2763   -0.4736 C   0  0
    9.0136  -16.2843   -0.8495 C   0  0
    9.9706  -16.8933   -0.0364 C   0  0
    9.5855  -17.5055    1.1544 C   0  0
    8.2438  -17.5140    1.5311 C   0  0
    7.2846  -16.9046    0.7210 C   0  0
    0.8915  -18.5882   -0.0850 C   0  0
    1.4371  -19.4744    1.0383 C   0  0
    0.3548  -19.4409   -1.2398 C   0  0
   -2.9395  -15.2163    1.7816 H   0  0
   -3.3403  -17.6667    1.7263 H   0  0
   -1.5988  -19.1806    0.8891 H   0  0
   -0.7828  -14.2980    1.0174 H   0  0
    2.4234  -16.0968    1.8613 H   0  0
    4.5274  -15.0904    1.1675 H   0  0
    2.7238  -13.8797   -2.5549 H   0  0
    0.5880  -14.8903   -1.8404 H   0  0
    6.1941  -14.1560    0.3127 H   0  0
    8.3884  -13.8103    0.2238 H   0  0
    5.7649  -16.2541   -1.4252 H   0  0
    7.0075  -15.4820   -2.3600 H   0  0
    9.3322  -15.8148   -1.7793 H   0  0
   11.0164  -16.8970   -0.3353 H   0  0
   10.3287  -17.9881    1.7842 H   0  0
    7.9454  -18.0067    2.4534 H   0  0
    6.2406  -16.9399    1.0240 H   0  0
    1.7431  -18.0363   -0.4960 H   0  0
    2.2428  -20.1160    0.6651 H   0  0
    0.6631  -20.1246    1.4602 H   0  0
    1.8443  -18.8672    1.8543 H   0  0
    1.1559  -20.0561   -1.6642 H   0  0
   -0.0415  -18.8078   -2.0414 H   0  0
   -0.4439  -20.1181   -0.9199 H   0  0
  1  2  2  0
  1 28  1  0
  2  3  1  0
  2 29  1  0
  3  4  2  0
  3 30  1  0
  4  5  1  0
  4 25  1  0
  5  6  2  0
  5  7  1  0
  6  1  1  0
  6 31  1  0
  7  8  2  0
  8  9  1  0
  8 32  1  0
  9 10  2  0
  9 33  1  0
 10 11  1  0
 10 13  1  0
 11 12  2  0
 11 34  1  0
 12  7  1  0
 12 35  1  0
 13 14  1  0
 14 15  1  0
 14 18  1  0
 14 36  1  0
 15 16  1  0
 15 17  2  0
 16 37  1  0
 18 19  1  0
 18 38  1  0
 18 39  1  0
 19 20  2  0
 20 21  1  0
 20 40  1  0
 21 22  2  0
 21 41  1  0
 22 23  1  0
 22 42  1  0
 23 24  2  0
 23 43  1  0
 24 19  1  0
 24 44  1  0
 25 26  1  0
 25 27  1  0
 25 45  1  0
 26 46  1  0
 26 47  1  0
 26 48  1  0
 27 49  1  0
 27 50  1  0
 27 51  1  0
M  END
> <Name>
CHEMBL2312702

> <Clean Energy>
36.8634

> <chembl_id>
CHEMBL2312702

> <chembl_pref_name>
None

> <efficacy>
0.33

> <Forcefield>
MMFF

> <ForcefieldBase>
MMFF

> <ForcefieldFFML>
<?xml version="1.0" encoding="UTF-8"?>
<!DOCTYPE ffml SYSTEM "Ffml.dtd">
<ffml version="1.0">
<forcefield name="MMFF" derivedFrom="MMFF" base="MMFF">
<atomTypes>
<atomType
name="C100"
element="C"
mass="12.011"
annotation=""/>
<atomType
name="O101"
element="O"
mass="16"
annotation=""/>
<atomType
name="H102"
element="H"
mass="1.008"
annotation=""/>
</atomTypes>
<parameters>
</parameters>
</forcefield>
</ffml>

> <Initial Potential Energy>
209.15375

> <Initial RMS Gradient>
31.54204

> <Minimization Criteria>
STEEPD> Minimization exiting with gradient tolerance ( 3.0000000) satisfied.

> <CHARMm Energy>
87.74223

> <Potential Energy>
87.74223

> <RMS Gradient>
0.04512

> <Bond Energy>
8.105

> <Angle Energy>
11.73722

> <STRBend>
0.09115

> <Dihedral Energy>
5.97686

> <OOPLane>
0.00703

> <Van der Waals Energy>
57.32488

> <Electrostatic Energy>
4.50008

> <Hydrogen Bond Energy>
0

> <Solvation Free Energy>
0

> <HasGasteigerCharges>
true

> <REMARK99>
REMARK  99  MacroMolecule created from Mol2 file
REMARK  99  CHEMBL2312702
REMARK  99  PROTEIN
REMARK  99  GASTEIGER
REMARK  99
REMARK  99

$$$$
CHEMBL3115241
  SciTegic05292516403D

 73 77  0  0  0  0            999 V2000
    1.4557   -0.0345   -1.4906 C   0  0
    1.5940   -1.4182   -1.3583 C   0  0
    1.5493   -2.0232   -0.0918 C   0  0
    1.3845   -1.2016    1.0378 C   0  0
    1.2514    0.1802    0.9041 C   0  0
    1.2910    0.7623   -0.3601 C   0  0
    1.7682   -3.5153    0.1203 C   0  0  2  0  0  0
    3.1898   -3.7153    0.3232 N   0  0
    1.2322   -4.4007   -1.0212 C   0  0
    1.2097   -5.8823   -0.6651 C   0  0
    3.7061   -4.5020    1.3207 C   0  0
    3.0584   -5.1859    2.0995 O   0  0
    5.1913   -4.4468    1.3453 C   0  0
    5.8836   -3.2712    1.8538 C   0  0
    7.2154   -3.1920    1.7032 C   0  0
    5.8571   -5.4671    0.7681 C   0  0
    8.2342   -6.1681    0.0037 C   0  0
    7.2738   -5.3715    0.6003 C   0  0
    7.9120   -4.2227    1.0684 N   0  0
    9.2321   -4.2592    0.7948 N   0  0
    9.4236   -5.3737    0.0803 C   0  0
    7.9874   -7.5032   -0.6295 C   0  0
   10.7818   -5.6579   -0.4954 C   0  0
   11.6283   -4.4133   -0.7815 C   0  0
   12.9687   -4.7848   -1.3978 C   0  0
    9.1682   -8.3985   -0.3585 C   0  0
    9.8632   -8.9498   -1.4408 C   0  0
   11.0185   -9.6974   -1.2292 C   0  0
   11.5144   -9.9133    0.0633 C   0  0
   10.7739   -9.4204    1.1494 C   0  0
    9.6049   -8.6834    0.9436 C   0  0
   12.7561  -10.6709    0.2799 C   0  0
   12.6622  -11.9455    0.8726 C   0  0
   13.7983  -12.7160    1.1196 C   0  0
   15.0549  -12.2343    0.7697 C   0  0
   15.1830  -10.9824    0.1764 C   0  0
   14.0433  -10.1928   -0.0531 C   0  0
   14.2651   -8.8430   -0.6314 C   0  0
   15.1639   -8.1310    0.0866 O   0  0
   13.6917   -8.4000   -1.6096 O   0  0
    1.4739    0.4274   -2.4756 H   0  0
    1.7451   -2.0104   -2.2572 H   0  0
    1.3687   -1.6420    2.0339 H   0  0
    1.1115    0.8045    1.7842 H   0  0
    1.1890    1.8398   -0.4638 H   0  0
    1.2358   -3.8037    1.0365 H   0  0
    3.8320   -3.2145   -0.2797 H   0  0
    0.2081   -4.0964   -1.2706 H   0  0
    1.8363   -4.2747   -1.9280 H   0  0
    0.7487   -6.4554   -1.4758 H   0  0
    0.6294   -6.0604    0.2452 H   0  0
    2.2210   -6.2718   -0.5146 H   0  0
    5.3141   -2.4855    2.3379 H   0  0
    7.8124   -2.3558    2.0411 H   0  0
    5.3257   -6.3279    0.3722 H   0  0
    7.0877   -7.9808   -0.2254 H   0  0
    7.8283   -7.3624   -1.7051 H   0  0
   11.3278   -6.3090    0.1974 H   0  0
   10.6593   -6.2024   -1.4387 H   0  0
   11.0913   -3.7415   -1.4622 H   0  0
   11.8106   -3.8550    0.1444 H   0  0
   13.5564   -3.8829   -1.5983 H   0  0
   12.8326   -5.3189   -2.3436 H   0  0
   13.5464   -5.4236   -0.7216 H   0  0
    9.5367   -8.7621   -2.4616 H   0  0
   11.5541  -10.0779   -2.0952 H   0  0
   11.1209   -9.5912    2.1671 H   0  0
    9.0656   -8.2840    1.8013 H   0  0
   11.6868  -12.3485    1.1448 H   0  0
   13.6997  -13.6980    1.5763 H   0  0
   15.9377  -12.8385    0.9528 H   0  0
   16.1726  -10.6325   -0.1150 H   0  0
   15.4017   -8.5337    0.9432 H   0  0
  1  2  2  0
  1 41  1  0
  2  3  1  0
  2 42  1  0
  3  4  2  0
  3  7  1  0
  4  5  1  0
  4 43  1  0
  5  6  2  0
  5 44  1  0
  6  1  1  0
  6 45  1  0
  7  8  1  0
  7  9  1  0
  7 46  1  0
  8 11  1  0
  8 47  1  0
  9 10  1  0
  9 48  1  0
  9 49  1  0
 10 50  1  0
 10 51  1  0
 10 52  1  0
 11 12  2  0
 13 11  1  0
 13 14  1  0
 14 15  2  0
 14 53  1  0
 15 19  1  0
 15 54  1  0
 16 13  2  0
 16 55  1  0
 17 18  2  0
 17 22  1  0
 18 16  1  0
 18 19  1  0
 19 20  1  0
 20 21  2  0
 21 17  1  0
 21 23  1  0
 22 26  1  0
 22 56  1  0
 22 57  1  0
 23 24  1  0
 23 58  1  0
 23 59  1  0
 24 25  1  0
 24 60  1  0
 24 61  1  0
 25 62  1  0
 25 63  1  0
 25 64  1  0
 26 27  2  0
 27 28  1  0
 27 65  1  0
 28 29  2  0
 28 66  1  0
 29 30  1  0
 29 32  1  0
 30 31  2  0
 30 67  1  0
 31 26  1  0
 31 68  1  0
 32 33  2  0
 33 34  1  0
 33 69  1  0
 34 35  2  0
 34 70  1  0
 35 36  1  0
 35 71  1  0
 36 37  2  0
 36 72  1  0
 37 32  1  0
 37 38  1  0
 38 39  1  0
 38 40  2  0
 39 73  1  0
M  END
> <Name>
CHEMBL3115241

> <Clean Energy>
66.553497

> <chembl_id>
CHEMBL3115241

> <chembl_pref_name>
None

> <efficacy>
0.37

> <Forcefield>
MMFF

> <ForcefieldBase>
MMFF

> <ForcefieldFFML>
<?xml version="1.0" encoding="UTF-8"?>
<!DOCTYPE ffml SYSTEM "Ffml.dtd">
<ffml version="1.0">
<forcefield name="MMFF" derivedFrom="MMFF" base="MMFF">
<atomTypes>
<atomType
name="C100"
element="C"
mass="12.011"
annotation=""/>
<atomType
name="N101"
element="N"
mass="14.007"
annotation=""/>
<atomType
name="O102"
element="O"
mass="16"
annotation=""/>
<atomType
name="H103"
element="H"
mass="1.008"
annotation=""/>
</atomTypes>
<parameters>
</parameters>
</forcefield>
</ffml>

> <Initial Potential Energy>
295.76588

> <Initial RMS Gradient>
34.98981

> <Minimization Criteria>
STEEPD> Minimization exiting with gradient tolerance ( 3.0000000) satisfied.

> <CHARMm Energy>
81.84752

> <Potential Energy>
81.84752

> <RMS Gradient>
0.10707

> <Bond Energy>
9.16662

> <Angle Energy>
12.55853

> <STRBend>
-0.22006

> <Dihedral Energy>
13.898

> <OOPLane>
0.19903

> <Van der Waals Energy>
76.03581

> <Electrostatic Energy>
-29.79042

> <Hydrogen Bond Energy>
0

> <Solvation Free Energy>
0

> <HasGasteigerCharges>
true

> <REMARK99>
REMARK  99  MacroMolecule created from Mol2 file
REMARK  99  CHEMBL3115241
REMARK  99  PROTEIN
REMARK  99  GASTEIGER
REMARK  99
REMARK  99

$$$$
CHEMBL1801741
  SciTegic05292516403D

 70 75  0  0  0  0            999 V2000
    6.8893  -18.9590   -1.4640 C   0  0
    6.8879  -17.6850   -0.8592 C   0  0
    8.0939  -19.7776   -1.5499 C   0  0
    8.0967  -17.0740   -0.2932 C   0  0
    8.8991  -16.2370   -1.0978 C   0  0
    8.4663  -17.3097    1.0420 C   0  0
   10.0466  -15.6285   -0.5903 C   0  0
    5.6909  -19.4673   -2.0012 C   0  0
    5.6780  -16.9668   -0.7978 C   0  0
    4.5023  -18.7395   -1.9333 C   0  0
    4.4967  -17.4892   -1.3276 C   0  0
   10.3718  -15.8419    0.7399 C   0  0
    9.6016  -16.6903    1.5424 C   0  0
   10.2065  -16.8408    2.9033 C   0  0
   11.1641  -15.6407    2.9709 C   0  0
   11.5377  -15.2903    1.5155 C   0  0  2  0  0  0
   11.7794  -13.8782    1.2784 N   0  0
   11.5037  -11.6961    0.9293 N   0  0
   13.0112  -13.3844    0.9125 C   0  0
   10.9006  -12.8060    1.3198 C   0  0
   12.8078  -12.0334    0.6830 C   0  0
   15.2014  -13.3077    0.3759 C   0  0
   14.1610  -14.0757    0.7860 N   0  0
   13.8944  -11.2546    0.2581 C   0  0
   15.1135  -11.9361    0.1047 C   0  0
    9.4586  -12.8485    1.7526 C   0  0
   13.7968   -9.7924   -0.0405 C   0  0
    8.5447  -12.3497    0.6312 C   0  0
    8.1694  -21.0611   -1.0841 N   0  0
    9.3712  -21.5888   -1.3452 N   0  0
   10.0497  -20.6083   -1.9261 N   0  0
    9.2745  -19.4771   -2.0551 N   0  0
   16.5240  -14.0185    0.1848 C   0  0
   16.8595  -14.2941   -1.2931 C   0  0
   18.2942  -14.8131   -1.4121 C   0  0
   15.8923  -15.3006   -1.9222 C   0  0
    9.2657  -11.9942    3.0090 C   0  0
    8.6307  -16.0705   -2.1398 H   0  0
    7.8745  -17.9677    1.6721 H   0  0
   10.6579  -14.9965   -1.2283 H   0  0
    5.6884  -20.4276   -2.5086 H   0  0
    5.6537  -15.9809   -0.3356 H   0  0
    3.5891  -19.1368   -2.3655 H   0  0
    3.5815  -16.9065   -1.2742 H   0  0
    9.4568  -16.7958    3.6984 H   0  0
   10.7562  -17.7857    2.9647 H   0  0
   10.6606  -14.8057    3.4727 H   0  0
   12.0509  -15.8647    3.5743 H   0  0
   12.4279  -15.8605    1.2239 H   0  0
   15.9941  -11.3952   -0.2324 H   0  0
    9.1468  -13.8631    2.0039 H   0  0
   12.8011   -9.4026    0.1932 H   0  0
   13.9927   -9.6108   -1.1017 H   0  0
   14.5245   -9.2347    0.5573 H   0  0
    7.4932  -12.4237    0.9291 H   0  0
    8.6772  -12.9410   -0.2805 H   0  0
    8.7498  -11.3031    0.3788 H   0  0
    7.4727  -21.6050   -0.5954 H   0  0
   17.3111  -13.4061    0.6436 H   0  0
   16.5097  -14.9618    0.7461 H   0  0
   16.7944  -13.3586   -1.8631 H   0  0
   18.5578  -14.9913   -2.4598 H   0  0
   18.4236  -15.7531   -0.8652 H   0  0
   19.0059  -14.0850   -1.0092 H   0  0
   16.1750  -15.5137   -2.9587 H   0  0
   14.8686  -14.9142   -1.9362 H   0  0
   15.8915  -16.2475   -1.3718 H   0  0
    8.2277  -12.0419    3.3550 H   0  0
    9.5110  -10.9425    2.8234 H   0  0
    9.9088  -12.3450    3.8237 H   0  0
  1  2  1  0
  2  4  1  0
  3  1  1  0
  3 29  1  0
  4  5  2  0
  5  7  1  0
  5 38  1  0
  6  4  1  0
  6 13  2  0
  6 39  1  0
  7 12  2  0
  7 40  1  0
  8  1  2  0
  8 10  1  0
  8 41  1  0
  9  2  2  0
  9 42  1  0
 10 11  2  0
 10 43  1  0
 11  9  1  0
 11 44  1  0
 12 13  1  0
 13 14  1  0
 14 15  1  0
 14 45  1  0
 14 46  1  0
 15 16  1  0
 15 47  1  0
 15 48  1  0
 16 12  1  0
 16 17  1  0
 16 49  1  0
 17 19  1  0
 18 20  2  0
 18 21  1  0
 19 21  2  0
 19 23  1  0
 20 17  1  0
 21 24  1  0
 22 33  1  0
 23 22  2  0
 24 25  2  0
 25 22  1  0
 25 50  1  0
 26 20  1  0
 26 37  1  0
 26 51  1  0
 27 24  1  0
 27 52  1  0
 27 53  1  0
 27 54  1  0
 28 26  1  0
 28 55  1  0
 28 56  1  0
 28 57  1  0
 29 30  1  0
 29 58  1  0
 30 31  2  0
 31 32  1  0
 32  3  2  0
 33 34  1  0
 33 59  1  0
 33 60  1  0
 34 35  1  0
 34 36  1  0
 34 61  1  0
 35 62  1  0
 35 63  1  0
 35 64  1  0
 36 65  1  0
 36 66  1  0
 36 67  1  0
 37 68  1  0
 37 69  1  0
 37 70  1  0
M  END
> <Name>
CHEMBL1801741

> <Clean Energy>
105.844002

> <chembl_id>
CHEMBL1801741

> <chembl_pref_name>
None

> <efficacy>
0.27173913

> <Forcefield>
MMFF

> <ForcefieldBase>
MMFF

> <ForcefieldFFML>
<?xml version="1.0" encoding="UTF-8"?>
<!DOCTYPE ffml SYSTEM "Ffml.dtd">
<ffml version="1.0">
<forcefield name="MMFF" derivedFrom="MMFF" base="MMFF">
<atomTypes>
<atomType
name="C100"
element="C"
mass="12.011"
annotation=""/>
<atomType
name="N101"
element="N"
mass="14.007"
annotation=""/>
<atomType
name="H102"
element="H"
mass="1.008"
annotation=""/>
</atomTypes>
<parameters>
</parameters>
</forcefield>
</ffml>

> <Initial Potential Energy>
247.73514

> <Initial RMS Gradient>
35.12424

> <Minimization Criteria>
STEEPD> Minimization exiting with gradient tolerance ( 3.0000000) satisfied.

> <CHARMm Energy>
98.16965

> <Potential Energy>
98.16965

> <RMS Gradient>
0.088

> <Bond Energy>
7.90907

> <Angle Energy>
14.34677

> <STRBend>
-0.67764

> <Dihedral Energy>
7.72057

> <OOPLane>
0.03213

> <Van der Waals Energy>
60.19134

> <Electrostatic Energy>
8.64742

> <Hydrogen Bond Energy>
0

> <Solvation Free Energy>
0

> <HasGasteigerCharges>
true

> <REMARK99>
REMARK  99  MacroMolecule created from Mol2 file
REMARK  99  CHEMBL1801741
REMARK  99  PROTEIN
REMARK  99  GASTEIGER
REMARK  99
REMARK  99

$$$$
CHEMBL1801740
  SciTegic05292516403D

 67 72  0  0  0  0            999 V2000
   -1.9254  -18.1468   -0.8978 C   0  0
   -1.4163  -16.8384   -0.7123 C   0  0
   -1.1279  -19.3833   -0.8898 C   0  0
   -0.0103  -16.4929   -0.4409 C   0  0
    0.7951  -15.9420   -1.4648 C   0  0
    0.5090  -16.5803    0.8625 C   0  0
    2.0704  -15.4324   -1.1962 C   0  0
   -3.3146  -18.2965   -1.1145 C   0  0
   -2.3165  -15.7477   -0.7635 C   0  0
   -4.1818  -17.2031   -1.1589 C   0  0
   -3.6797  -15.9247   -0.9852 C   0  0
    2.5341  -15.4685    0.1097 C   0  0
    1.7779  -16.0762    1.1192 C   0  0
    2.4624  -15.9696    2.4476 C   0  0
    3.8853  -15.5466    2.0504 C   0  0
    3.8047  -14.8762    0.6620 C   0  0  2  0  0  0
    3.8670  -13.4168    0.7110 N   0  0
    3.3945  -11.2357    0.7638 N   0  0
    5.0768  -12.7461    0.6672 C   0  0
    2.8745  -12.4514    0.8209 C   0  0
    4.7475  -11.4017    0.6800 C   0  0
    7.3030  -12.3581    0.5711 C   0  0
    6.3150  -13.2829    0.6214 N   0  0
    5.7839  -10.4558    0.6240 C   0  0
    7.0892  -10.9748    0.5673 C   0  0
    1.4082  -12.7070    0.9862 C   0  0
    5.5601   -8.9744    0.6339 C   0  0
    0.6250  -11.4434    1.3234 C   0  0
    0.2380  -19.4750   -0.9166 N   0  0
    0.6301  -20.7542   -0.9048 N   0  0
   -0.4924  -21.4556   -0.8912 N   0  0
   -1.5889  -20.6284   -0.8904 N   0  0
    8.7158  -12.8939    0.4973 C   0  0
    9.3181  -12.8378   -0.9193 C   0  0
   10.8052  -13.1955   -0.8646 C   0  0
    8.5964  -13.7785   -1.8879 C   0  0
    0.3997  -15.8566   -2.4772 H   0  0
   -0.0971  -16.9787    1.6743 H   0  0
    2.6548  -14.9679   -1.9865 H   0  0
   -3.7338  -19.2914   -1.2557 H   0  0
   -1.9504  -14.7317   -0.6177 H   0  0
   -5.2437  -17.3544   -1.3281 H   0  0
   -4.3342  -15.0589   -1.0141 H   0  0
    1.9834  -15.2040    3.0654 H   0  0
    2.4676  -16.9229    2.9841 H   0  0
    4.3533  -14.9201    2.8175 H   0  0
    4.5012  -16.4531    1.9641 H   0  0
    4.6443  -15.2147    0.0416 H   0  0
    7.9379  -10.2939    0.5251 H   0  0
    0.9971  -13.1186    0.0606 H   0  0
    1.2426  -13.4196    1.7965 H   0  0
    4.4931   -8.7326    0.6631 H   0  0
    5.9848   -8.5230   -0.2683 H   0  0
    6.0337   -8.5279    1.5140 H   0  0
   -0.4363  -11.6802    1.4504 H   0  0
    0.7109  -10.6973    0.5261 H   0  0
    0.9852  -10.9898    2.2532 H   0  0
    0.9397  -18.7503   -0.9509 H   0  0
    9.3372  -12.3169    1.1946 H   0  0
    8.7274  -13.9274    0.8678 H   0  0
    9.2341  -11.8162   -1.3114 H   0  0
   11.2573  -13.1342   -1.8602 H   0  0
   10.9563  -14.2120   -0.4856 H   0  0
   11.3475  -12.5049   -0.2101 H   0  0
    9.0693  -13.7544   -2.8756 H   0  0
    7.5499  -13.4870   -2.0207 H   0  0
    8.6191  -14.8129   -1.5283 H   0  0
  1  2  1  0
  2  4  1  0
  3  1  1  0
  3 29  1  0
  4  5  2  0
  5  7  1  0
  5 37  1  0
  6  4  1  0
  6 13  2  0
  6 38  1  0
  7 12  2  0
  7 39  1  0
  8  1  2  0
  8 10  1  0
  8 40  1  0
  9  2  2  0
  9 41  1  0
 10 11  2  0
 10 42  1  0
 11  9  1  0
 11 43  1  0
 12 13  1  0
 13 14  1  0
 14 15  1  0
 14 44  1  0
 14 45  1  0
 15 16  1  0
 15 46  1  0
 15 47  1  0
 16 12  1  0
 16 17  1  0
 16 48  1  0
 17 19  1  0
 18 20  2  0
 18 21  1  0
 19 21  2  0
 19 23  1  0
 20 17  1  0
 21 24  1  0
 22 33  1  0
 23 22  2  0
 24 25  2  0
 25 22  1  0
 25 49  1  0
 26 20  1  0
 26 50  1  0
 26 51  1  0
 27 24  1  0
 27 52  1  0
 27 53  1  0
 27 54  1  0
 28 26  1  0
 28 55  1  0
 28 56  1  0
 28 57  1  0
 29 30  1  0
 29 58  1  0
 30 31  2  0
 31 32  1  0
 32  3  2  0
 33 34  1  0
 33 59  1  0
 33 60  1  0
 34 35  1  0
 34 36  1  0
 34 61  1  0
 35 62  1  0
 35 63  1  0
 35 64  1  0
 36 65  1  0
 36 66  1  0
 36 67  1  0
M  END
> <Name>
CHEMBL1801740

> <Clean Energy>
96.5112

> <chembl_id>
CHEMBL1801740

> <chembl_pref_name>
None

> <efficacy>
0.336956522

> <Forcefield>
MMFF

> <ForcefieldBase>
MMFF

> <ForcefieldFFML>
<?xml version="1.0" encoding="UTF-8"?>
<!DOCTYPE ffml SYSTEM "Ffml.dtd">
<ffml version="1.0">
<forcefield name="MMFF" derivedFrom="MMFF" base="MMFF">
<atomTypes>
<atomType
name="C100"
element="C"
mass="12.011"
annotation=""/>
<atomType
name="N101"
element="N"
mass="14.007"
annotation=""/>
<atomType
name="H102"
element="H"
mass="1.008"
annotation=""/>
</atomTypes>
<parameters>
</parameters>
</forcefield>
</ffml>

> <Initial Potential Energy>
249.01577

> <Initial RMS Gradient>
35.62731

> <Minimization Criteria>
CONJUG> Minimization exiting with gradient tolerance ( 0.0100000) satisfied.

> <CHARMm Energy>
90.56947

> <Potential Energy>
90.56947

> <RMS Gradient>
0.00977

> <Bond Energy>
9.00058

> <Angle Energy>
17.3306

> <STRBend>
-0.48321

> <Dihedral Energy>
3.51737

> <OOPLane>
0.1856

> <Van der Waals Energy>
60.52603

> <Electrostatic Energy>
0.4925

> <Hydrogen Bond Energy>
0

> <Solvation Free Energy>
0

> <HasGasteigerCharges>
true

> <REMARK99>
REMARK  99  MacroMolecule created from Mol2 file
REMARK  99  CHEMBL1801740
REMARK  99  PROTEIN
REMARK  99  GASTEIGER
REMARK  99
REMARK  99

$$$$
CHEMBL574606
  SciTegic05292516403D

 44 46  0  0  0  0            999 V2000
   16.1724  -21.5360    1.0671 C   0  0
   17.1331  -22.4321    1.5446 C   0  0
   18.4177  -21.9799    1.8359 C   0  0
   18.7288  -20.6380    1.6273 C   0  0
   17.7626  -19.7247    1.2095 C   0  0
   16.4768  -20.1793    0.9233 C   0  0
   20.0119  -20.2032    1.8162 O   0  0
   20.8086  -20.4919    0.6325 C   0  0  1  0  0  0
   21.2924  -19.1452    0.0992 C   0  0
   21.9977  -21.3558    1.0713 C   0  0
   22.7779  -22.1235    0.0253 C   0  0
   23.9657  -22.7591    0.4294 C   0  0
   24.7200  -23.5178   -0.4682 C   0  0
   24.2989  -23.6559   -1.7866 C   0  0
   23.1250  -23.0345   -2.2037 C   0  0
   22.3676  -22.2759   -1.3050 C   0  0
   21.0426  -18.1121    0.9475 O   0  0
   21.8699  -18.9802   -0.9650 O   0  0
   14.8954  -22.0207    0.6574 C   0  0
   13.8561  -22.4363    0.2249 C   0  0
   12.6591  -22.9354   -0.3694 C   0  0
   11.5716  -22.0836   -0.5675 C   0  0
   10.4217  -22.5639   -1.1881 C   0  0
   10.3564  -23.8945   -1.6054 C   0  0
   11.4446  -24.7452   -1.4049 C   0  0
   12.5965  -24.2664   -0.7871 C   0  0
   16.8923  -23.4859    1.6656 H   0  0
   19.1727  -22.6758    2.1917 H   0  0
   18.0081  -18.6753    1.0713 H   0  0
   15.7233  -19.4812    0.5630 H   0  0
   20.2000  -20.9640   -0.1482 H   0  0
   22.7034  -20.7201    1.6250 H   0  0
   21.6351  -22.0974    1.7962 H   0  0
   24.3164  -22.6649    1.4558 H   0  0
   25.6373  -23.9985   -0.1374 H   0  0
   24.8862  -24.2424   -2.4883 H   0  0
   22.7926  -23.1373   -3.2339 H   0  0
   21.4620  -21.8101   -1.6845 H   0  0
   20.5305  -18.4485    1.7175 H   0  0
   11.6316  -21.0436   -0.2556 H   0  0
    9.5725  -21.9035   -1.3472 H   0  0
    9.4556  -24.2688   -2.0882 H   0  0
   11.3890  -25.7805   -1.7320 H   0  0
   13.4571  -24.9178   -0.6471 H   0  0
  1  2  2  0
  1 19  1  0
  2  3  1  0
  2 27  1  0
  3  4  2  0
  3 28  1  0
  4  5  1  0
  4  7  1  0
  5  6  2  0
  5 29  1  0
  6  1  1  0
  6 30  1  0
  7  8  1  0
  8  9  1  0
  8 10  1  0
  8 31  1  0
  9 17  1  0
  9 18  2  0
 10 11  1  0
 10 32  1  0
 10 33  1  0
 11 12  2  0
 12 13  1  0
 12 34  1  0
 13 14  2  0
 13 35  1  0
 14 15  1  0
 14 36  1  0
 15 16  2  0
 15 37  1  0
 16 11  1  0
 16 38  1  0
 17 39  1  0
 19 20  3  0
 21 20  1  0
 21 22  2  0
 22 23  1  0
 22 40  1  0
 23 24  2  0
 23 41  1  0
 24 25  1  0
 24 42  1  0
 25 26  2  0
 25 43  1  0
 26 21  1  0
 26 44  1  0
M  END
> <Name>
CHEMBL574606

> <Clean Energy>
75.954697

> <chembl_id>
CHEMBL574606

> <chembl_pref_name>
None

> <efficacy>
0.39

> <Forcefield>
MMFF

> <ForcefieldBase>
MMFF

> <ForcefieldFFML>
<?xml version="1.0" encoding="UTF-8"?>
<!DOCTYPE ffml SYSTEM "Ffml.dtd">
<ffml version="1.0">
<forcefield name="MMFF" derivedFrom="MMFF" base="MMFF">
<atomTypes>
<atomType
name="C100"
element="C"
mass="12.011"
annotation=""/>
<atomType
name="O101"
element="O"
mass="16"
annotation=""/>
<atomType
name="H102"
element="H"
mass="1.008"
annotation=""/>
</atomTypes>
<parameters>
</parameters>
</forcefield>
</ffml>

> <Initial Potential Energy>
382.49478

> <Initial RMS Gradient>
58.4082

> <Minimization Criteria>
STEEPD> Minimization exiting with gradient tolerance ( 3.0000000) satisfied.

> <CHARMm Energy>
64.61691

> <Potential Energy>
64.61691

> <RMS Gradient>
0.07217

> <Bond Energy>
4.75849

> <Angle Energy>
5.62381

> <STRBend>
0.35866

> <Dihedral Energy>
7.94453

> <OOPLane>
0.06098

> <Van der Waals Energy>
52.72686

> <Electrostatic Energy>
-6.85643

> <Hydrogen Bond Energy>
0

> <Solvation Free Energy>
0

> <HasGasteigerCharges>
true

> <REMARK99>
REMARK  99  MacroMolecule created from Mol2 file
REMARK  99  CHEMBL574606
REMARK  99  PROTEIN
REMARK  99  GASTEIGER
REMARK  99
REMARK  99

$$$$
CHEMBL2424956
  SciTegic05292516403D

 50 53  0  0  0  0            999 V2000
    5.8955  -12.9510    0.8821 S   0  0
    6.8494  -13.6662    1.6972 O   0  0
    5.2747  -11.7193    1.3284 O   0  0
    7.7725  -10.5172   -0.4280 C   0  0
    7.8599  -11.9000   -0.5334 C   0  0
    9.1193  -12.4936   -0.4666 C   0  0
   10.2788  -11.8024   -0.3654 N   0  0
   10.1684  -10.4531   -0.2984 C   0  0
    8.9459   -9.7756   -0.3108 C   0  0
   11.3241   -9.7077   -0.1848 O   0  0
   12.5425  -10.4371   -0.4003 C   0  0
    8.8349   -8.0590   -0.1997 Cl  0  0
    6.6655  -12.6851   -0.6221 N   0  0
    4.5450  -13.9932    0.3685 C   0  0
    3.5117  -13.3364   -0.3314 C   0  0
    2.3773  -14.0315   -0.7423 C   0  0
    2.2578  -15.3841   -0.4462 C   0  0
    3.2746  -16.0435    0.2447 C   0  0
    4.4272  -15.3532    0.6547 C   0  0
   13.0617  -11.0665    0.9000 C   0  0
   14.0374  -12.1250    0.6492 N   0  0
   13.5543  -13.4732    0.4313 C   0  0
   15.3294  -11.8135    0.4178 C   0  0
   16.1810  -12.8486    0.1179 O   0  0
   15.9049  -10.6284    0.4331 N   0  0
   17.2201  -10.8915    0.1422 C   0  0
   17.3929  -12.2505   -0.0524 C   0  0
   18.6004  -12.8628   -0.3659 C   0  0
   19.6977  -12.0031   -0.4862 C   0  0
   19.5667  -10.6209   -0.2969 C   0  0
   18.3276  -10.0435    0.0207 C   0  0
    5.6255  -16.2958    1.4543 Cl  0  0
    0.8560  -16.2476   -0.9408 Cl  0  0
    6.8041  -10.0228   -0.4379 H   0  0
    9.2382  -13.5732   -0.4904 H   0  0
   12.4385  -11.1670   -1.2138 H   0  0
   13.2810   -9.7096   -0.7584 H   0  0
    6.7888  -13.5783   -1.1028 H   0  0
    3.5888  -12.2706   -0.5501 H   0  0
    1.5859  -13.5103   -1.2768 H   0  0
    3.1613  -17.1035    0.4662 H   0  0
   13.4896  -10.2803    1.5366 H   0  0
   12.2295  -11.4665    1.4919 H   0  0
   13.5714  -13.7211   -0.6357 H   0  0
   12.5242  -13.5945    0.7837 H   0  0
   14.1635  -14.2054    0.9734 H   0  0
   18.6833  -13.9329   -0.5055 H   0  0
   20.6754  -12.4175   -0.7291 H   0  0
   20.4424   -9.9816   -0.3951 H   0  0
   18.2281   -8.9740    0.1697 H   0  0
  1  3  2  0
  1 14  1  0
  2  1  2  0
  4  5  2  0
  4 34  1  0
  5  6  1  0
  5 13  1  0
  6  7  2  0
  6 35  1  0
  7  8  1  0
  8  9  2  0
  8 10  1  0
  9  4  1  0
  9 12  1  0
 10 11  1  0
 11 20  1  0
 11 36  1  0
 11 37  1  0
 13  1  1  0
 13 38  1  0
 14 15  2  0
 15 16  1  0
 15 39  1  0
 16 17  2  0
 16 40  1  0
 17 18  1  0
 17 33  1  0
 18 19  2  0
 18 41  1  0
 19 14  1  0
 19 32  1  0
 20 21  1  0
 20 42  1  0
 20 43  1  0
 21 22  1  0
 21 23  1  0
 22 44  1  0
 22 45  1  0
 22 46  1  0
 23 24  1  0
 24 27  1  0
 25 23  2  0
 26 25  1  0
 26 27  2  0
 27 28  1  0
 28 29  2  0
 28 47  1  0
 29 30  1  0
 29 48  1  0
 30 31  2  0
 30 49  1  0
 31 26  1  0
 31 50  1  0
M  END
> <Name>
CHEMBL2424956

> <Clean Energy>
30.532499

> <chembl_id>
CHEMBL2424956

> <chembl_pref_name>
None

> <efficacy>
0.16

> <Forcefield>
MMFF

> <ForcefieldBase>
MMFF

> <ForcefieldFFML>
<?xml version="1.0" encoding="UTF-8"?>
<!DOCTYPE ffml SYSTEM "Ffml.dtd">
<ffml version="1.0">
<forcefield name="MMFF" derivedFrom="MMFF" base="MMFF">
<atomTypes>
<atomType
name="S100"
element="S"
mass="32.066"
annotation=""/>
<atomType
name="O101"
element="O"
mass="16"
annotation=""/>
<atomType
name="C102"
element="C"
mass="12.011"
annotation=""/>
<atomType
name="N103"
element="N"
mass="14.007"
annotation=""/>
<atomType
name="Cl104"
element="Cl"
mass="35.453"
annotation=""/>
<atomType
name="H105"
element="H"
mass="1.008"
annotation=""/>
</atomTypes>
<parameters>
</parameters>
</forcefield>
</ffml>

> <Initial Potential Energy>
59.05108

> <Initial RMS Gradient>
35.98124

> <Minimization Criteria>
STEEPD> Minimization exiting with gradient tolerance ( 3.0000000) satisfied.

> <CHARMm Energy>
-23.56801

> <Potential Energy>
-23.56801

> <RMS Gradient>
0.02447

> <Bond Energy>
4.26594

> <Angle Energy>
15.72308

> <STRBend>
1.04729

> <Dihedral Energy>
5.88648

> <OOPLane>
0.20916

> <Van der Waals Energy>
57.44278

> <Electrostatic Energy>
-108.14274

> <Hydrogen Bond Energy>
0

> <Solvation Free Energy>
0

> <HasGasteigerCharges>
true

> <REMARK99>
REMARK  99  MacroMolecule created from Mol2 file
REMARK  99  CHEMBL2424956
REMARK  99  PROTEIN
REMARK  99  GASTEIGER
REMARK  99
REMARK  99

$$$$
CHEMBL234908
  SciTegic05292516403D

 60 63  0  0  0  0            999 V2000
   -2.7315    0.3198    0.1062 C   0  0  1  0  0  0
   -1.9832    0.5664   -1.1875 C   0  0
   -3.9829    1.1635    0.2221 C   0  0
   -3.0883   -1.1098    0.2018 C   0  0
   -3.4998   -2.2344    0.2971 C   0  0
   -0.8036    1.1847   -1.3692 C   0  0
    0.1029    1.8310   -0.3576 C   0  0
    1.1937    0.9319   -0.1756 O   0  0
    2.4441    1.4522    0.0052 C   0  0
    3.4833    0.5816   -0.3185 C   0  0
    4.8199    0.9697   -0.1849 C   0  0
    5.1446    2.2458    0.2806 C   0  0
    4.1035    3.1248    0.6380 C   0  0
    2.7564    2.7165    0.5025 C   0  0
    6.4270    2.7198    0.4382 O   0  0
    7.4748    1.9380   -0.1145 C   0  0
    8.8605    2.5828   -0.0170 C   0  0
    9.7978    1.8717   -0.7058 O   0  0
    9.1545    3.5949    0.5999 O   0  0
    4.4228    4.4987    1.1676 C   0  0
   -4.1050   -3.5233    0.4194 C   0  0
   -4.2229    1.9206    1.3611 C   0  0
   -4.9843    1.1634   -0.7569 C   0  0
   -5.3436    2.6475    1.5751 N   0  0
   -5.4004   -3.6256    0.9359 C   0  0
   -6.0155   -4.8733    1.0470 C   0  0
   -5.3356   -6.0203    0.6406 C   0  0
   -4.0418   -5.9177    0.1259 C   0  0
   -3.4234   -4.6705    0.0154 C   0  0
   -6.1587    1.8994   -0.5694 C   0  0
   -6.2966    2.6295    0.6278 C   0  0
   -7.4683    3.3441    0.8247 C   0  0
   -8.4909    3.3512   -0.1278 C   0  0
   -8.3453    2.6371   -1.3115 C   0  0
   -7.1807    1.9091   -1.5338 C   0  0
   -2.0700    0.5488    0.9505 H   0  0
   -2.4658    0.1583   -2.0781 H   0  0
   -0.4013    1.2258   -2.3821 H   0  0
    0.4158    2.8000   -0.7642 H   0  0
   -0.3914    1.9960    0.6039 H   0  0
    3.2486   -0.4159   -0.6834 H   0  0
    5.5705    0.2358   -0.4470 H   0  0
    1.9656    3.3952    0.8082 H   0  0
    7.5427    0.9850    0.4236 H   0  0
    7.2788    1.7725   -1.1812 H   0  0
    9.4226    1.0983   -1.1702 H   0  0
    3.5117    5.0660    1.3840 H   0  0
    4.9978    5.0656    0.4282 H   0  0
    4.9969    4.4225    2.0965 H   0  0
   -3.5102    1.9569    2.1808 H   0  0
   -4.8622    0.5667   -1.6582 H   0  0
   -5.9313   -2.7308    1.2525 H   0  0
   -7.0225   -4.9492    1.4494 H   0  0
   -5.8115   -6.9954    0.7268 H   0  0
   -3.5108   -6.8112   -0.1898 H   0  0
   -2.4144   -4.6035   -0.3851 H   0  0
   -7.5856    3.9124    1.7443 H   0  0
   -9.3966    3.9196    0.0592 H   0  0
   -9.1345    2.6502   -2.0583 H   0  0
   -7.0694    1.3500   -2.4596 H   0  0
  1  2  1  0
  1  3  1  0
  1  4  1  0
  1 36  1  0
  2  6  2  0
  2 37  1  0
  3 22  2  0
  4  5  3  0
  5 21  1  0
  6  7  1  0
  6 38  1  0
  7  8  1  0
  7 39  1  0
  7 40  1  0
  8  9  1  0
  9 10  2  0
 10 11  1  0
 10 41  1  0
 11 12  2  0
 11 42  1  0
 12 13  1  0
 12 15  1  0
 13 14  2  0
 13 20  1  0
 14  9  1  0
 14 43  1  0
 15 16  1  0
 16 17  1  0
 16 44  1  0
 16 45  1  0
 17 18  1  0
 17 19  2  0
 18 46  1  0
 20 47  1  0
 20 48  1  0
 20 49  1  0
 21 25  2  0
 22 24  1  0
 22 50  1  0
 23  3  1  0
 23 51  1  0
 25 26  1  0
 25 52  1  0
 26 27  2  0
 26 53  1  0
 27 28  1  0
 27 54  1  0
 28 29  2  0
 28 55  1  0
 29 21  1  0
 29 56  1  0
 30 23  2  0
 30 31  1  0
 31 24  2  0
 31 32  1  0
 32 33  2  0
 32 57  1  0
 33 34  1  0
 33 58  1  0
 34 35  2  0
 34 59  1  0
 35 30  1  0
 35 60  1  0
M  END
> <Name>
CHEMBL234908

> <Clean Energy>
60.826

> <chembl_id>
CHEMBL234908

> <chembl_pref_name>
None

> <efficacy>
0.28

> <Forcefield>
MMFF

> <ForcefieldBase>
MMFF

> <ForcefieldFFML>
<?xml version="1.0" encoding="UTF-8"?>
<!DOCTYPE ffml SYSTEM "Ffml.dtd">
<ffml version="1.0">
<forcefield name="MMFF" derivedFrom="MMFF" base="MMFF">
<atomTypes>
<atomType
name="C100"
element="C"
mass="12.011"
annotation=""/>
<atomType
name="O101"
element="O"
mass="16"
annotation=""/>
<atomType
name="N102"
element="N"
mass="14.007"
annotation=""/>
<atomType
name="H103"
element="H"
mass="1.008"
annotation=""/>
</atomTypes>
<parameters>
</parameters>
</forcefield>
</ffml>

> <Initial Potential Energy>
335.79399

> <Initial RMS Gradient>
35.06303

> <Minimization Criteria>
STEEPD> Minimization exiting with gradient tolerance ( 3.0000000) satisfied.

> <CHARMm Energy>
103.1829

> <Potential Energy>
103.1829

> <RMS Gradient>
0.09875

> <Bond Energy>
6.70419

> <Angle Energy>
20.85386

> <STRBend>
0.21963

> <Dihedral Energy>
-4.32899

> <OOPLane>
0.05668

> <Van der Waals Energy>
71.82012

> <Electrostatic Energy>
7.8574

> <Hydrogen Bond Energy>
0

> <Solvation Free Energy>
0

> <HasGasteigerCharges>
true

> <REMARK99>
REMARK  99  MacroMolecule created from Mol2 file
REMARK  99  CHEMBL234908
REMARK  99  PROTEIN
REMARK  99  GASTEIGER
REMARK  99
REMARK  99

$$$$
CHEMBL501439
  SciTegic05292516403D

 66 69  0  0  0  0            999 V2000
   19.3852   -2.7962    0.1492 C   0  0
   19.8485   -4.0619    0.5186 C   0  0
   21.1744   -4.4442    0.2767 C   0  0
   22.0706   -3.5620   -0.3424 C   0  0
   21.6014   -2.2916   -0.7134 C   0  0
   20.2687   -1.9142   -0.4743 C   0  0
   23.5166   -3.9392   -0.5795 C   0  0
   24.3692   -3.2288    0.2140 F   0  0
   23.7965   -5.2516   -0.3378 F   0  0
   23.9262   -3.7035   -1.8588 F   0  0
   18.0734   -2.5543    0.4632 O   0  0
   17.5247   -1.2946    0.0748 C   0  0
   16.0936   -1.1796    0.5608 C   0  0
   15.7447   -0.2548    1.5427 C   0  0
   14.4101   -0.1270    1.9416 C   0  0
   13.3736   -0.9022    1.3694 C   0  0
   13.7350   -1.9061    0.4495 C   0  0
   15.0870   -2.0083    0.0436 C   0  0
   11.7711   -0.5542    2.0696 S   0  0
   10.8308    0.5056    0.9606 C   0  0
    8.8749    2.1859   -0.2205 C   0  0
    8.5301    0.9129    0.2185 C   0  0
    9.4901    0.0997    0.8224 C   0  0
    7.9551    3.0586   -0.7587 O   0  0
    6.6974    3.0773   -0.0647 C   0  0
    5.9438    4.3650   -0.3480 C   0  0
    6.4845    5.1321   -1.3281 O   0  0
    4.9188    4.6963    0.2352 O   0  0
   12.9834   -2.8848   -0.1497 O   0  0
   11.6666   -3.1720    0.3147 C   0  0
   11.2351   -4.4611   -0.2607 C   0  0
   10.5635    3.9933   -0.6687 C   0  0
   10.2154    2.6131   -0.1424 C   0  0
   11.2133    1.7571    0.4190 C   0  0
   12.6471    2.2353    0.4879 C   0  0
   12.9655    3.4770   -0.3417 C   0  0
   11.8919    4.5285   -0.1531 C   0  0
   10.8731   -5.5104   -0.7212 C   0  0
   10.4667   -6.8049   -1.2731 C   0  0
   19.1668   -4.7570    1.0055 H   0  0
   21.4990   -5.4368    0.5848 H   0  0
   22.2778   -1.5825   -1.1903 H   0  0
   19.9638   -0.9186   -0.7809 H   0  0
   18.1174   -0.4782    0.5057 H   0  0
   17.5308   -1.2001   -1.0182 H   0  0
   16.5101    0.3642    2.0101 H   0  0
   14.1700    0.6121    2.7086 H   0  0
   15.3695   -2.7864   -0.6699 H   0  0
    7.5185    0.5321    0.1298 H   0  0
    9.1605   -0.8582    1.2243 H   0  0
    6.0737    2.2495   -0.4173 H   0  0
    6.8537    3.0273    1.0195 H   0  0
    7.3005    4.6889   -1.6550 H   0  0
   11.6532   -3.2721    1.4043 H   0  0
   10.9816   -2.3912   -0.0242 H   0  0
   10.5892    3.9409   -1.7643 H   0  0
    9.7851    4.7129   -0.3881 H   0  0
   12.8925    2.4403    1.5365 H   0  0
   13.3043    1.4506    0.1075 H   0  0
   13.9451    3.8729   -0.0512 H   0  0
   13.0343    3.2078   -1.4035 H   0  0
   12.1569    5.4440   -0.6934 H   0  0
   11.8092    4.7919    0.9088 H   0  0
    9.3842   -6.8384   -1.4272 H   0  0
   10.7396   -7.6191   -0.5953 H   0  0
   10.9530   -6.9864   -2.2360 H   0  0
  1  2  2  0
  1 11  1  0
  2  3  1  0
  2 40  1  0
  3  4  2  0
  3 41  1  0
  4  5  1  0
  4  7  1  0
  5  6  2  0
  5 42  1  0
  6  1  1  0
  6 43  1  0
  7  8  1  0
  7  9  1  0
  7 10  1  0
 11 12  1  0
 12 13  1  0
 12 44  1  0
 12 45  1  0
 13 14  2  0
 14 15  1  0
 14 46  1  0
 15 16  2  0
 15 47  1  0
 16 17  1  0
 16 19  1  0
 17 18  2  0
 17 29  1  0
 18 13  1  0
 18 48  1  0
 19 20  1  0
 20 34  2  0
 21 22  1  0
 21 24  1  0
 22 23  2  0
 22 49  1  0
 23 20  1  0
 23 50  1  0
 24 25  1  0
 25 26  1  0
 25 51  1  0
 25 52  1  0
 26 27  1  0
 26 28  2  0
 27 53  1  0
 29 30  1  0
 30 31  1  0
 30 54  1  0
 30 55  1  0
 31 38  3  0
 32 33  1  0
 32 37  1  0
 32 56  1  0
 32 57  1  0
 33 21  2  0
 33 34  1  0
 34 35  1  0
 35 36  1  0
 35 58  1  0
 35 59  1  0
 36 37  1  0
 36 60  1  0
 36 61  1  0
 37 62  1  0
 37 63  1  0
 38 39  1  0
 39 64  1  0
 39 65  1  0
 39 66  1  0
M  END
> <Name>
CHEMBL501439

> <Clean Energy>
227.190994

> <chembl_id>
CHEMBL501439

> <chembl_pref_name>
None

> <efficacy>
0.23

> <Forcefield>
MMFF

> <ForcefieldBase>
MMFF

> <ForcefieldFFML>
<?xml version="1.0" encoding="UTF-8"?>
<!DOCTYPE ffml SYSTEM "Ffml.dtd">
<ffml version="1.0">
<forcefield name="MMFF" derivedFrom="MMFF" base="MMFF">
<atomTypes>
<atomType
name="C100"
element="C"
mass="12.011"
annotation=""/>
<atomType
name="F101"
element="F"
mass="18.998"
annotation=""/>
<atomType
name="O102"
element="O"
mass="16"
annotation=""/>
<atomType
name="S103"
element="S"
mass="32.066"
annotation=""/>
<atomType
name="H104"
element="H"
mass="1.008"
annotation=""/>
</atomTypes>
<parameters>
</parameters>
</forcefield>
</ffml>

> <Initial Potential Energy>
624.57394

> <Initial RMS Gradient>
49.79201

> <Minimization Criteria>
STEEPD> Minimization exiting with gradient tolerance ( 3.0000000) satisfied.

> <CHARMm Energy>
119.68453

> <Potential Energy>
119.68453

> <RMS Gradient>
0.13022

> <Bond Energy>
9.37467

> <Angle Energy>
34.13131

> <STRBend>
0.69944

> <Dihedral Energy>
2.90493

> <OOPLane>
0.24448

> <Van der Waals Energy>
71.3865

> <Electrostatic Energy>
0.94321

> <Hydrogen Bond Energy>
0

> <Solvation Free Energy>
0

> <HasGasteigerCharges>
true

> <REMARK99>
REMARK  99  MacroMolecule created from Mol2 file
REMARK  99  CHEMBL501439
REMARK  99  PROTEIN
REMARK  99  GASTEIGER
REMARK  99
REMARK  99

$$$$
CHEMBL503072
  SciTegic05292516403D

 70 73  0  0  0  0            999 V2000
    5.2471  -11.2763    0.0376 C   0  0
    6.0124  -11.8175    1.0729 C   0  0
    7.2766  -12.3509    0.8196 C   0  0
    7.7907  -12.3611   -0.4845 C   0  0
    7.0323  -11.7925   -1.5171 C   0  0
    5.7652  -11.2597   -1.2586 C   0  0
    9.1655  -12.9133   -0.7592 C   0  0
   10.1294  -11.9641   -0.6004 F   0  0
    9.5117  -13.9371    0.0701 F   0  0
    9.3205  -13.3912   -2.0256 F   0  0
    4.0246  -10.8034    0.4284 O   0  0
    3.1945  -10.2353   -0.5819 C   0  0
    1.9125   -9.7417    0.0554 C   0  0
    1.9404   -8.7098    1.0022 C   0  0
    0.7515   -8.2376    1.5734 C   0  0
   -0.4927   -8.7868    1.2215 C   0  0
   -0.5101   -9.8509    0.3059 C   0  0
    0.6774  -10.3061   -0.2876 C   0  0
   -1.9252   -8.1833    2.1016 S   0  0
   -2.8237   -7.1904    0.9060 C   0  0
   -4.6909   -5.7012   -0.5658 C   0  0
   -4.7853   -7.0887   -0.5319 C   0  0
   -3.8662   -7.8232    0.2137 C   0  0
   -5.6590   -4.9840   -1.2319 O   0  0
   -6.8393   -4.9019   -0.4095 C   0  0
   -7.8294   -3.9312   -1.0137 C   0  0
   -7.4678   -3.4425   -2.2257 O   0  0
   -8.8758   -3.6067   -0.4686 O   0  0
   -1.6567  -10.4667   -0.1233 O   0  0
   -2.2622  -11.3100    0.8701 C   0  0
   -2.3181  -12.6885    0.3559 C   0  0
   -3.5017   -3.5316   -0.0838 C   0  0
   -3.6234   -5.0333    0.0600 C   0  0
   -2.6681   -5.7863    0.7951 C   0  0
   -1.5436   -5.0791    1.5262 C   0  0
   -1.2864   -3.6521    1.0494 C   0  0
   -2.5934   -2.8861    0.9562 C   0  0
   -2.4272  -13.8174   -0.0425 C   0  0
   -2.5819  -15.2113   -0.4897 C   0  0
   -3.8224  -15.7649   -0.0358 O   0  0
   -4.8862  -15.5421   -0.9519 C   0  0
    5.6086  -11.8248    2.0836 H   0  0
    7.8618  -12.7567    1.6444 H   0  0
    7.4315  -11.7609   -2.5311 H   0  0
    5.2086  -10.8437   -2.0919 H   0  0
    3.6906   -9.3800   -1.0582 H   0  0
    2.9637  -10.9893   -1.3445 H   0  0
    2.8988   -8.2869    1.3111 H   0  0
    0.8031   -7.4332    2.3048 H   0  0
    0.6304  -11.1200   -1.0092 H   0  0
   -5.5904   -7.6028   -1.0491 H   0  0
   -3.9951   -8.8996    0.2782 H   0  0
   -7.3269   -5.8816   -0.3585 H   0  0
   -6.5834   -4.5332    0.5910 H   0  0
   -6.6039   -3.8390   -2.4802 H   0  0
   -1.7182  -11.3005    1.8232 H   0  0
   -3.2776  -10.9472    1.0554 H   0  0
   -3.1126   -3.3206   -1.0879 H   0  0
   -4.4878   -3.0594   -0.0070 H   0  0
   -1.7889   -5.0592    2.5954 H   0  0
   -0.6078   -5.6318    1.4017 H   0  0
   -0.6013   -3.1508    1.7423 H   0  0
   -0.7958   -3.6678    0.0678 H   0  0
   -2.4031   -1.8423    0.6826 H   0  0
   -3.0890   -2.8777    1.9352 H   0  0
   -2.4873  -15.3007   -1.5779 H   0  0
   -1.7851  -15.8170   -0.0452 H   0  0
   -5.7993  -15.9684   -0.5278 H   0  0
   -4.6804  -16.0403   -1.9043 H   0  0
   -5.0434  -14.4713   -1.1123 H   0  0
  1  2  2  0
  1 11  1  0
  2  3  1  0
  2 42  1  0
  3  4  2  0
  3 43  1  0
  4  5  1  0
  4  7  1  0
  5  6  2  0
  5 44  1  0
  6  1  1  0
  6 45  1  0
  7  8  1  0
  7  9  1  0
  7 10  1  0
 11 12  1  0
 12 13  1  0
 12 46  1  0
 12 47  1  0
 13 14  2  0
 14 15  1  0
 14 48  1  0
 15 16  2  0
 15 49  1  0
 16 17  1  0
 16 19  1  0
 17 18  2  0
 17 29  1  0
 18 13  1  0
 18 50  1  0
 19 20  1  0
 20 34  2  0
 21 22  1  0
 21 24  1  0
 22 23  2  0
 22 51  1  0
 23 20  1  0
 23 52  1  0
 24 25  1  0
 25 26  1  0
 25 53  1  0
 25 54  1  0
 26 27  1  0
 26 28  2  0
 27 55  1  0
 29 30  1  0
 30 31  1  0
 30 56  1  0
 30 57  1  0
 31 38  3  0
 32 33  1  0
 32 37  1  0
 32 58  1  0
 32 59  1  0
 33 21  2  0
 33 34  1  0
 34 35  1  0
 35 36  1  0
 35 60  1  0
 35 61  1  0
 36 37  1  0
 36 62  1  0
 36 63  1  0
 37 64  1  0
 37 65  1  0
 38 39  1  0
 39 40  1  0
 39 66  1  0
 39 67  1  0
 40 41  1  0
 41 68  1  0
 41 69  1  0
 41 70  1  0
M  END
> <Name>
CHEMBL503072

> <Clean Energy>
232.507004

> <chembl_id>
CHEMBL503072

> <chembl_pref_name>
None

> <efficacy>
0.21

> <Forcefield>
MMFF

> <ForcefieldBase>
MMFF

> <ForcefieldFFML>
<?xml version="1.0" encoding="UTF-8"?>
<!DOCTYPE ffml SYSTEM "Ffml.dtd">
<ffml version="1.0">
<forcefield name="MMFF" derivedFrom="MMFF" base="MMFF">
<atomTypes>
<atomType
name="C100"
element="C"
mass="12.011"
annotation=""/>
<atomType
name="F101"
element="F"
mass="18.998"
annotation=""/>
<atomType
name="O102"
element="O"
mass="16"
annotation=""/>
<atomType
name="S103"
element="S"
mass="32.066"
annotation=""/>
<atomType
name="H104"
element="H"
mass="1.008"
annotation=""/>
</atomTypes>
<parameters>
</parameters>
</forcefield>
</ffml>

> <Initial Potential Energy>
661.32359

> <Initial RMS Gradient>
53.28768

> <Minimization Criteria>
CONJUG> Minimization exiting with gradient tolerance ( 0.0100000) satisfied.

> <CHARMm Energy>
116.66918

> <Potential Energy>
116.66918

> <RMS Gradient>
0.00902

> <Bond Energy>
8.0249

> <Angle Energy>
18.6955

> <STRBend>
0.69181

> <Dihedral Energy>
18.18888

> <OOPLane>
0.26332

> <Van der Waals Energy>
71.58548

> <Electrostatic Energy>
-0.7807

> <Hydrogen Bond Energy>
0

> <Solvation Free Energy>
0

> <HasGasteigerCharges>
true

> <REMARK99>
REMARK  99  MacroMolecule created from Mol2 file
REMARK  99  CHEMBL503072
REMARK  99  PROTEIN
REMARK  99  GASTEIGER
REMARK  99
REMARK  99

$$$$
CHEMBL4742137
  SciTegic05292516403D

 48 51  0  0  0  0            999 V2000
    7.2305  -18.2758   -0.2652 C   0  0
    8.5440  -17.5139   -0.1880 C   0  0
    9.3346  -17.3414   -1.3336 C   0  0
   10.5757  -16.6879   -1.2598 C   0  0
   11.0636  -16.1928   -0.0430 C   0  0
   10.2545  -16.3373    1.0907 C   0  0
    9.0121  -16.9916    1.0243 C   0  0
   12.2977  -15.5015    0.0550 N   0  0
   13.2587  -16.2294   -0.2892 N   0  0
   14.4939  -15.5438   -0.2242 C   0  0
   15.3256  -15.5393   -1.3501 C   0  0
   16.5835  -14.9229   -1.3168 C   0  0
   17.0456  -14.3009   -0.1474 C   0  0
   16.2125  -14.3054    0.9810 C   0  0
   14.9585  -14.9269    0.9450 C   0  0
    5.9979  -17.3825   -0.4601 C   0  0  1  0  0  0
    4.7443  -18.1845   -1.5468 S   0  0
    3.4473  -18.0155   -0.3890 C   0  0
    3.9289  -17.4712    0.7533 N   0  0
    5.2528  -17.1454    0.8432 C   0  0
    5.7468  -16.7099    1.8751 O   0  0
    2.2931  -18.3548   -0.5901 O   0  0
   18.3724  -13.6636   -0.1075 C   0  0
   19.4960  -14.2899    0.4810 C   0  0
   20.7343  -13.6230    0.4955 C   0  0
   20.8697  -12.3571   -0.0732 C   0  0
   19.7724  -11.7388   -0.6614 C   0  0
   18.5359  -12.3870   -0.6776 C   0  0
   19.3959  -15.6552    1.1089 C   0  0
    7.3281  -18.9933   -1.0911 H   0  0
    7.1331  -18.8897    0.6405 H   0  0
    9.0036  -17.7262   -2.2963 H   0  0
   11.1713  -16.5682   -2.1615 H   0  0
   10.6003  -15.9415    2.0429 H   0  0
    8.4237  -17.0957    1.9350 H   0  0
   14.9855  -16.0261   -2.2608 H   0  0
   17.2128  -14.9386   -2.2057 H   0  0
   16.5419  -13.8289    1.9026 H   0  0
   14.3404  -14.9339    1.8386 H   0  0
    6.2468  -16.4115   -0.9008 H   0  0
    3.3078  -17.3397    1.5371 H   0  0
   21.6073  -14.0889    0.9498 H   0  0
   21.8338  -11.8546   -0.0565 H   0  0
   19.8761  -10.7526   -1.1062 H   0  0
   17.6852  -11.8864   -1.1370 H   0  0
   20.3834  -16.0402    1.3861 H   0  0
   18.9572  -16.3725    0.4078 H   0  0
   18.7891  -15.6110    2.0186 H   0  0
  1  2  1  0
  1 16  1  0
  1 30  1  0
  1 31  1  0
  2  3  2  0
  3  4  1  0
  3 32  1  0
  4  5  2  0
  4 33  1  0
  5  6  1  0
  5  8  1  0
  6  7  2  0
  6 34  1  0
  7  2  1  0
  7 35  1  0
  8  9  2  0
  9 10  1  0
 10 11  2  0
 11 12  1  0
 11 36  1  0
 12 13  2  0
 12 37  1  0
 13 14  1  0
 13 23  1  0
 14 15  2  0
 14 38  1  0
 15 10  1  0
 15 39  1  0
 16 17  1  0
 16 40  1  0
 17 18  1  0
 18 19  1  0
 18 22  2  0
 19 20  1  0
 19 41  1  0
 20 16  1  0
 20 21  2  0
 23 24  2  0
 23 28  1  0
 24 25  1  0
 24 29  1  0
 25 26  2  0
 25 42  1  0
 26 27  1  0
 26 43  1  0
 27 28  2  0
 27 44  1  0
 28 45  1  0
 29 46  1  0
 29 47  1  0
 29 48  1  0
M  END
> <Name>
CHEMBL4742137

> <Clean Energy>
30.266899

> <chembl_id>
CHEMBL4742137

> <chembl_pref_name>
None

> <efficacy>
0.113960114

> <Forcefield>
MMFF

> <ForcefieldBase>
MMFF

> <ForcefieldFFML>
<?xml version="1.0" encoding="UTF-8"?>
<!DOCTYPE ffml SYSTEM "Ffml.dtd">
<ffml version="1.0">
<forcefield name="MMFF" derivedFrom="MMFF" base="MMFF">
<atomTypes>
<atomType
name="C100"
element="C"
mass="12.011"
annotation=""/>
<atomType
name="N101"
element="N"
mass="14.007"
annotation=""/>
<atomType
name="S102"
element="S"
mass="32.066"
annotation=""/>
<atomType
name="O103"
element="O"
mass="16"
annotation=""/>
<atomType
name="H104"
element="H"
mass="1.008"
annotation=""/>
</atomTypes>
<parameters>
</parameters>
</forcefield>
</ffml>

> <Initial Potential Energy>
90.08989

> <Initial RMS Gradient>
31.79525

> <Minimization Criteria>
STEEPD> Minimization exiting with gradient tolerance ( 3.0000000) satisfied.

> <CHARMm Energy>
6.57598

> <Potential Energy>
6.57598

> <RMS Gradient>
0.05272

> <Bond Energy>
7.83135

> <Angle Energy>
5.17653

> <STRBend>
-0.42616

> <Dihedral Energy>
19.99434

> <OOPLane>
0.05405

> <Van der Waals Energy>
50.4002

> <Electrostatic Energy>
-76.45431

> <Hydrogen Bond Energy>
0

> <Solvation Free Energy>
0

> <HasGasteigerCharges>
true

> <REMARK99>
REMARK  99  MacroMolecule created from Mol2 file
REMARK  99  CHEMBL4742137
REMARK  99  PROTEIN
REMARK  99  GASTEIGER
REMARK  99
REMARK  99

$$$$
CHEMBL452054
  SciTegic05292516403D

 52 55  0  0  0  0            999 V2000
   -7.1755  -14.4848   -1.0907 C   0  0
   -7.5474  -15.5439   -0.2792 C   0  0
   -6.5710  -16.2254    0.4433 C   0  0
   -5.9162  -14.0237   -1.2482 N   0  0
   -4.9971  -14.7001   -0.5207 C   0  0
   -5.2447  -15.7899    0.3085 C   0  0
   -3.9899  -16.2058    0.8032 C   0  0
   -2.9990  -15.3832    0.2990 C   0  0
   -3.6416  -14.4219   -0.4701 N   0  0
   -1.5286  -15.4589    0.5052 C   0  0
   -3.0366  -13.3203   -1.2230 C   0  0
   -2.0561  -12.4745   -0.4386 C   0  0
   -0.7108  -12.4230   -0.8648 C   0  0
    0.2598  -11.6881   -0.1716 C   0  0
   -0.1166  -10.9747    0.9604 C   0  0
   -1.4523  -10.9818    1.3778 C   0  0
   -2.4181  -11.7177    0.6830 C   0  0
   -3.7672  -17.2308    1.6529 O   0  0
   -3.4910  -18.4957    1.1873 C   0  0
   -3.2454  -19.4559    2.1714 C   0  0
   -2.9548  -20.7729    1.8103 C   0  0
   -2.9358  -21.1366    0.4660 C   0  0
   -3.1816  -20.1844   -0.5225 C   0  0
   -3.4525  -18.8604   -0.1629 C   0  0
    1.5106  -11.7476   -0.7186 O   0  0
    2.6264  -11.1942    0.0036 C   0  0  2  0  0  0
    3.7225  -10.8675   -1.0188 C   0  0
    3.1468  -12.2108    1.0099 C   0  0
    3.2514  -10.7829   -2.2905 O   0  0
    4.8959  -10.6490   -0.7442 O   0  0
   -2.6189  -22.7696    0.0249 Cl  0  0
   -4.0452  -11.6196    1.2471 Cl  0  0
   -7.9316  -13.9539   -1.6658 H   0  0
   -8.5871  -15.8432   -0.2147 H   0  0
   -6.8346  -17.0705    1.0743 H   0  0
   -1.1954  -14.6922    1.2103 H   0  0
   -0.9915  -15.3429   -0.4407 H   0  0
   -1.2376  -16.4296    0.9196 H   0  0
   -2.5517  -13.7916   -2.0868 H   0  0
   -3.8274  -12.6719   -1.6154 H   0  0
   -0.4047  -12.9871   -1.7456 H   0  0
    0.5851  -10.3836    1.5404 H   0  0
   -1.7370  -10.3926    2.2486 H   0  0
   -3.3059  -19.1986    3.2272 H   0  0
   -2.7621  -21.5099    2.5840 H   0  0
   -3.1857  -20.4809   -1.5694 H   0  0
   -3.6364  -18.1317   -0.9477 H   0  0
    2.3727  -10.2360    0.4683 H   0  0
    4.0232  -11.8306    1.5444 H   0  0
    3.4318  -13.1430    0.5089 H   0  0
    2.3794  -12.4681    1.7467 H   0  0
    2.3021  -11.0330   -2.3064 H   0  0
  1  2  2  0
  1 33  1  0
  2  3  1  0
  2 34  1  0
  3  6  2  0
  3 35  1  0
  4  1  1  0
  5  4  2  0
  5  6  1  0
  6  7  1  0
  7  8  2  0
  7 18  1  0
  8  9  1  0
  8 10  1  0
  9  5  1  0
  9 11  1  0
 10 36  1  0
 10 37  1  0
 10 38  1  0
 11 12  1  0
 11 39  1  0
 11 40  1  0
 12 13  2  0
 13 14  1  0
 13 41  1  0
 14 15  2  0
 14 25  1  0
 15 16  1  0
 15 42  1  0
 16 17  2  0
 16 43  1  0
 17 12  1  0
 17 32  1  0
 18 19  1  0
 19 20  2  0
 20 21  1  0
 20 44  1  0
 21 22  2  0
 21 45  1  0
 22 23  1  0
 22 31  1  0
 23 24  2  0
 23 46  1  0
 24 19  1  0
 24 47  1  0
 25 26  1  0
 26 27  1  0
 26 28  1  0
 26 48  1  0
 27 29  1  0
 27 30  2  0
 28 49  1  0
 28 50  1  0
 28 51  1  0
 29 52  1  0
M  END
> <Name>
CHEMBL452054

> <Clean Energy>
91.014

> <chembl_id>
CHEMBL452054

> <chembl_pref_name>
None

> <efficacy>
0.36

> <Forcefield>
MMFF

> <ForcefieldBase>
MMFF

> <ForcefieldFFML>
<?xml version="1.0" encoding="UTF-8"?>
<!DOCTYPE ffml SYSTEM "Ffml.dtd">
<ffml version="1.0">
<forcefield name="MMFF" derivedFrom="MMFF" base="MMFF">
<atomTypes>
<atomType
name="C100"
element="C"
mass="12.011"
annotation=""/>
<atomType
name="N101"
element="N"
mass="14.007"
annotation=""/>
<atomType
name="O102"
element="O"
mass="16"
annotation=""/>
<atomType
name="Cl103"
element="Cl"
mass="35.453"
annotation=""/>
<atomType
name="H104"
element="H"
mass="1.008"
annotation=""/>
</atomTypes>
<parameters>
</parameters>
</forcefield>
</ffml>

> <Initial Potential Energy>
211.30515

> <Initial RMS Gradient>
34.49282

> <Minimization Criteria>
CONJUG> Minimization exiting with gradient tolerance ( 0.0100000) satisfied.

> <CHARMm Energy>
71.18484

> <Potential Energy>
71.18484

> <RMS Gradient>
0.00997

> <Bond Energy>
5.57855

> <Angle Energy>
16.59742

> <STRBend>
0.98126

> <Dihedral Energy>
5.54665

> <OOPLane>
0.08134

> <Van der Waals Energy>
59.75032

> <Electrostatic Energy>
-17.3507

> <Hydrogen Bond Energy>
0

> <Solvation Free Energy>
0

> <HasGasteigerCharges>
true

> <REMARK99>
REMARK  99  MacroMolecule created from Mol2 file
REMARK  99  CHEMBL452054
REMARK  99  PROTEIN
REMARK  99  GASTEIGER
REMARK  99
REMARK  99

$$$$
CHEMBL2260195
  SciTegic05292516403D

 54 59  0  0  0  0            999 V2000
   19.3744  -19.2510    1.3581 C   0  0
   19.0529  -20.2841    0.4655 C   0  0
   20.0654  -21.0869   -0.0893 C   0  0
   20.7058  -18.9709    1.6894 C   0  0
   21.7203  -19.7552    1.1234 C   0  0
   21.3883  -20.7941    0.2569 C   0  0
   22.5991  -21.3469   -0.0859 N   0  0
   23.5770  -20.6318    0.5516 C   0  0
   23.0767  -19.6675    1.2897 N   0  0
   22.8428  -22.4009   -1.0594 C   0  0
   22.2899  -23.7471   -0.6570 C   0  0
   22.6573  -24.3623    0.5463 C   0  0
   22.1929  -25.6462    0.8623 C   0  0
   21.3560  -26.3543   -0.0129 C   0  0
   20.9765  -25.7256   -1.2069 C   0  0
   21.4408  -24.4446   -1.5285 C   0  0
   20.9147  -27.7248    0.2929 C   0  0
   19.5538  -28.0393    0.4320 C   0  0
   19.1435  -29.3513    0.7022 C   0  0
   20.0847  -30.3726    0.8323 C   0  0
   21.4386  -30.0776    0.7002 C   0  0
   21.8487  -28.7654    0.4352 C   0  0
   17.6634  -20.5854    0.1210 C   0  0
   16.7255  -19.6722   -0.3200 N   0  0
   17.1437  -21.7993    0.1448 N   0  0
   15.8305  -21.6563   -0.2103 C   0  0
   15.5315  -20.3301   -0.5019 C   0  0
   14.2541  -19.9153   -0.8931 C   0  0
   13.2676  -20.9033   -0.9818 C   0  0
   13.5477  -22.2401   -0.6960 C   0  0
   14.8314  -22.6336   -0.3077 C   0  0
   16.9574  -18.2776   -0.6091 C   0  0
   18.5892  -18.6672    1.8313 H   0  0
   19.8154  -21.9111   -0.7508 H   0  0
   20.9589  -18.1766    2.3821 H   0  0
   24.6308  -20.8475    0.4370 H   0  0
   22.4036  -22.0537   -2.0025 H   0  0
   23.9247  -22.4856   -1.2156 H   0  0
   23.3167  -23.8579    1.2506 H   0  0
   22.4941  -26.0970    1.8061 H   0  0
   20.3291  -26.2446   -1.9114 H   0  0
   21.1346  -24.0040   -2.4753 H   0  0
   18.8021  -27.2576    0.3386 H   0  0
   18.0861  -29.5731    0.8143 H   0  0
   19.7649  -31.3916    1.0388 H   0  0
   22.1821  -30.8623    0.8024 H   0  0
   22.9119  -28.5631    0.3219 H   0  0
   14.0238  -18.8801   -1.1185 H   0  0
   12.2621  -20.6225   -1.2801 H   0  0
   12.7639  -22.9879   -0.7728 H   0  0
   15.0593  -23.6687   -0.0812 H   0  0
   16.2495  -17.9372   -1.3690 H   0  0
   17.9696  -18.1461   -0.9990 H   0  0
   16.8181  -17.7081    0.3128 H   0  0
  1  2  2  0
  1 33  1  0
  2  3  1  0
  2 23  1  0
  3  6  2  0
  3 34  1  0
  4  1  1  0
  4 35  1  0
  5  4  2  0
  5  6  1  0
  6  7  1  0
  7  8  1  0
  7 10  1  0
  8  9  2  0
  8 36  1  0
  9  5  1  0
 10 11  1  0
 10 37  1  0
 10 38  1  0
 11 12  2  0
 12 13  1  0
 12 39  1  0
 13 14  2  0
 13 40  1  0
 14 15  1  0
 14 17  1  0
 15 16  2  0
 15 41  1  0
 16 11  1  0
 16 42  1  0
 17 18  2  0
 18 19  1  0
 18 43  1  0
 19 20  2  0
 19 44  1  0
 20 21  1  0
 20 45  1  0
 21 22  2  0
 21 46  1  0
 22 17  1  0
 22 47  1  0
 23 24  1  0
 24 27  1  0
 24 32  1  0
 25 23  2  0
 26 25  1  0
 26 27  2  0
 27 28  1  0
 28 29  2  0
 28 48  1  0
 29 30  1  0
 29 49  1  0
 30 31  2  0
 30 50  1  0
 31 26  1  0
 31 51  1  0
 32 52  1  0
 32 53  1  0
 32 54  1  0
M  END
> <Name>
CHEMBL2260195

> <Clean Energy>
60.310001

> <chembl_id>
CHEMBL2260195

> <chembl_pref_name>
None

> <efficacy>
0.057

> <Forcefield>
MMFF

> <ForcefieldBase>
MMFF

> <ForcefieldFFML>
<?xml version="1.0" encoding="UTF-8"?>
<!DOCTYPE ffml SYSTEM "Ffml.dtd">
<ffml version="1.0">
<forcefield name="MMFF" derivedFrom="MMFF" base="MMFF">
<atomTypes>
<atomType
name="C100"
element="C"
mass="12.011"
annotation=""/>
<atomType
name="N101"
element="N"
mass="14.007"
annotation=""/>
<atomType
name="H102"
element="H"
mass="1.008"
annotation=""/>
</atomTypes>
<parameters>
</parameters>
</forcefield>
</ffml>

> <Initial Potential Energy>
642.10812

> <Initial RMS Gradient>
333.34477

> <Minimization Criteria>
STEEPD> Minimization exiting with gradient tolerance ( 3.0000000) satisfied.

> <CHARMm Energy>
89.4194

> <Potential Energy>
89.4194

> <RMS Gradient>
0.03803

> <Bond Energy>
7.38285

> <Angle Energy>
6.04755

> <STRBend>
-1.32269

> <Dihedral Energy>
10.62549

> <OOPLane>
0.08631

> <Van der Waals Energy>
62.45986

> <Electrostatic Energy>
4.14002

> <Hydrogen Bond Energy>
0

> <Solvation Free Energy>
0

> <HasGasteigerCharges>
true

> <REMARK99>
REMARK  99  MacroMolecule created from Mol2 file
REMARK  99  CHEMBL2260195
REMARK  99  PROTEIN
REMARK  99  GASTEIGER
REMARK  99
REMARK  99

$$$$
CHEMBL1644303
  SciTegic05292516403D

 60 62  0  0  0  0            999 V2000
    4.6143   -5.2846   -0.2512 C   0  0
    4.5000   -6.6544   -0.5139 C   0  0
    5.4182   -7.5579    0.0170 C   0  0
    6.4886   -7.1014    0.7815 C   0  0
    6.6072   -5.7415    1.0956 C   0  0
    5.6670   -4.8378    0.5616 C   0  0
    3.5850   -4.3569   -0.8335 C   0  0
    3.8704   -2.8578   -0.8618 C   0  0
    2.4790   -4.8759   -1.2927 N   0  0
    1.6145   -3.9066   -1.8203 O   0  0
    0.5389   -4.5535   -2.5108 C   0  0
   -0.7070   -4.3669   -1.7218 C   0  0
   -1.3819   -3.2040   -1.3961 C   0  0
   -2.5911   -3.3942   -0.7416 N   0  0
   -2.7859   -4.6810   -0.5076 C   0  0
   -1.5492   -5.7175   -1.1013 S   0  0
   -0.9429   -1.8185   -1.7010 C   0  0
   -4.0024   -5.2165    0.1351 C   0  0
   -5.1410   -4.3960    0.2099 C   0  0
   -6.3310   -4.8574    0.7780 C   0  0
   -6.4089   -6.1549    1.3004 C   0  0
   -5.2776   -6.9779    1.2425 C   0  0
   -4.0887   -6.5122    0.6694 C   0  0
   -7.7048   -6.6447    1.8869 C   0  0
   -8.2782   -5.7453    2.7405 F   0  0
   -7.6010   -7.8029    2.6030 F   0  0
   -8.6573   -6.8928    0.9391 F   0  0
    7.7138   -5.2356    1.9751 C   0  0
    7.3549   -8.0236    1.3057 O   0  0
    8.4726   -8.2630    0.4533 C   0  0
    8.2862   -9.3224   -0.6370 C   0  0
    9.4614   -9.7146   -1.1963 O   0  0
    7.2184   -9.7858   -1.0101 O   0  0
    3.2223   -2.1593    0.3318 C   0  0
    3.4807   -0.6619    0.3074 C   0  0
    3.6908   -7.0391   -1.1300 H   0  0
    5.2839   -8.6201   -0.1712 H   0  0
    5.7571   -3.7865    0.8180 H   0  0
    4.9495   -2.6749   -0.8793 H   0  0
    3.4943   -2.4368   -1.8017 H   0  0
    0.4351   -4.0622   -3.4846 H   0  0
    0.7668   -5.6086   -2.7075 H   0  0
   -1.7236   -1.0958   -1.4434 H   0  0
   -0.7196   -1.7080   -2.7667 H   0  0
   -0.0454   -1.5669   -1.1276 H   0  0
   -5.1040   -3.3830   -0.1905 H   0  0
   -7.2021   -4.2014    0.8099 H   0  0
   -5.3131   -7.9901    1.6436 H   0  0
   -3.2303   -7.1827    0.6542 H   0  0
    7.5006   -4.2267    2.3438 H   0  0
    8.6541   -5.2044    1.4164 H   0  0
    7.8359   -5.8792    2.8524 H   0  0
    8.8216   -7.3377   -0.0224 H   0  0
    9.2735   -8.6189    1.1115 H   0  0
   10.2738   -9.3479   -0.7940 H   0  0
    2.1407   -2.3374    0.3344 H   0  0
    3.6068   -2.5774    1.2692 H   0  0
    3.0082   -0.1817    1.1701 H   0  0
    3.0705   -0.2080   -0.6005 H   0  0
    4.5536   -0.4483    0.3449 H   0  0
  1  2  2  0
  1  7  1  0
  2  3  1  0
  2 36  1  0
  3  4  2  0
  3 37  1  0
  4  5  1  0
  4 29  1  0
  5  6  2  0
  5 28  1  0
  6  1  1  0
  6 38  1  0
  7  8  1  0
  7  9  2  0
  8 34  1  0
  8 39  1  0
  8 40  1  0
  9 10  1  0
 10 11  1  0
 11 12  1  0
 11 41  1  0
 11 42  1  0
 12 13  2  0
 13 14  1  0
 13 17  1  0
 14 15  2  0
 15 16  1  0
 15 18  1  0
 16 12  1  0
 17 43  1  0
 17 44  1  0
 17 45  1  0
 18 19  2  0
 19 20  1  0
 19 46  1  0
 20 21  2  0
 20 47  1  0
 21 22  1  0
 21 24  1  0
 22 23  2  0
 22 48  1  0
 23 18  1  0
 23 49  1  0
 24 25  1  0
 24 26  1  0
 24 27  1  0
 28 50  1  0
 28 51  1  0
 28 52  1  0
 29 30  1  0
 30 31  1  0
 30 53  1  0
 30 54  1  0
 31 32  1  0
 31 33  2  0
 32 55  1  0
 34 35  1  0
 34 56  1  0
 34 57  1  0
 35 58  1  0
 35 59  1  0
 35 60  1  0
M  END
> <Name>
CHEMBL1644303

> <Clean Energy>
58.3624

> <chembl_id>
CHEMBL1644303

> <chembl_pref_name>
None

> <efficacy>
0.434

> <Forcefield>
MMFF

> <ForcefieldBase>
MMFF

> <ForcefieldFFML>
<?xml version="1.0" encoding="UTF-8"?>
<!DOCTYPE ffml SYSTEM "Ffml.dtd">
<ffml version="1.0">
<forcefield name="MMFF" derivedFrom="MMFF" base="MMFF">
<atomTypes>
<atomType
name="C100"
element="C"
mass="12.011"
annotation=""/>
<atomType
name="N101"
element="N"
mass="14.007"
annotation=""/>
<atomType
name="O102"
element="O"
mass="16"
annotation=""/>
<atomType
name="S103"
element="S"
mass="32.066"
annotation=""/>
<atomType
name="F104"
element="F"
mass="18.998"
annotation=""/>
<atomType
name="H105"
element="H"
mass="1.008"
annotation=""/>
</atomTypes>
<parameters>
</parameters>
</forcefield>
</ffml>

> <Initial Potential Energy>
234.22604

> <Initial RMS Gradient>
28.67435

> <Minimization Criteria>
STEEPD> Minimization exiting with gradient tolerance ( 3.0000000) satisfied.

> <CHARMm Energy>
121.9039

> <Potential Energy>
121.9039

> <RMS Gradient>
0.0191

> <Bond Energy>
6.3956

> <Angle Energy>
12.70359

> <STRBend>
0.80869

> <Dihedral Energy>
4.49726

> <OOPLane>
0.12234

> <Van der Waals Energy>
54.01544

> <Electrostatic Energy>
43.36098

> <Hydrogen Bond Energy>
0

> <Solvation Free Energy>
0

> <HasGasteigerCharges>
true

> <REMARK99>
REMARK  99  MacroMolecule created from Mol2 file
REMARK  99  CHEMBL1644303
REMARK  99  PROTEIN
REMARK  99  GASTEIGER
REMARK  99
REMARK  99

$$$$
CHEMBL2338483
  SciTegic05292516403D

 40 42  0  0  0  0            999 V2000
   18.4674  -28.7984    0.3294 C   0  0
   17.5978  -29.5129   -0.4977 C   0  0
   16.5775  -28.8560   -1.1942 C   0  0
   16.3573  -27.4937   -0.9975 C   0  0
   17.1757  -26.7676   -0.1351 C   0  0
   18.2293  -27.4234    0.5174 C   0  0
   15.8707  -24.3737   -0.5409 S   0  0
   16.9291  -25.4176    0.2403 N   0  0
   14.2473  -24.8279    0.0140 C   0  0
   13.1176  -24.3357   -0.6489 C   0  0
   11.8407  -24.7127   -0.2148 C   0  0
   11.6915  -25.5555    0.8836 C   0  0
   12.8114  -26.0335    1.5584 C   0  0
   14.0908  -25.6694    1.1275 C   0  0
   17.7457  -30.8806   -0.6066 O   0  0
   15.9284  -31.4585    0.8960 C   0  0
   16.6115  -31.6002   -0.3100 C   0  0
   16.1204  -32.4888   -1.2602 C   0  0
   14.9269  -33.1495   -0.9957 C   0  0
   14.2848  -32.9110    0.2130 C   0  0
   14.7650  -32.0872    1.1757 N   0  0
   14.2518  -34.2237   -2.1513 Cl  0  0
   15.9711  -24.6221   -1.9613 O   0  0
   16.1420  -23.0749    0.0361 O   0  0
   10.1130  -25.9895    1.4164 Cl  0  0
   13.1803  -23.2275   -1.9726 Cl  0  0
   19.5825  -29.4962    1.0611 C   0  0
   20.3903  -30.2329    0.2510 F   0  0
   20.4099  -28.6329    1.7171 F   0  0
   19.1119  -30.3478    2.0142 F   0  0
   15.9262  -29.4025   -1.8728 H   0  0
   15.5311  -27.0381   -1.5344 H   0  0
   18.8697  -26.8661    1.2007 H   0  0
   17.6327  -24.9155    0.7806 H   0  0
   10.9600  -24.3409   -0.7305 H   0  0
   12.6960  -26.6849    2.4222 H   0  0
   14.9481  -26.0432    1.6812 H   0  0
   16.2961  -30.8088    1.6848 H   0  0
   16.6448  -32.6356   -2.1991 H   0  0
   13.3354  -33.3791    0.4508 H   0  0
  1  2  1  0
  1  6  2  0
  1 27  1  0
  2  3  2  0
  2 15  1  0
  3  4  1  0
  3 31  1  0
  4  5  2  0
  4 32  1  0
  5  6  1  0
  5  8  1  0
  6 33  1  0
  7  8  1  0
  7  9  1  0
  7 23  2  0
  7 24  2  0
  8 34  1  0
  9 10  1  0
  9 14  2  0
 10 11  2  0
 10 26  1  0
 11 12  1  0
 11 35  1  0
 12 13  2  0
 12 25  1  0
 13 14  1  0
 13 36  1  0
 14 37  1  0
 15 17  1  0
 16 17  1  0
 16 21  2  0
 16 38  1  0
 17 18  2  0
 18 19  1  0
 18 39  1  0
 19 20  2  0
 19 22  1  0
 20 21  1  0
 20 40  1  0
 27 28  1  0
 27 29  1  0
 27 30  1  0
M  END
> <Name>
CHEMBL2338483

> <Clean Energy>
125.674004

> <chembl_id>
CHEMBL2338483

> <chembl_pref_name>
None

> <efficacy>
0.1

> <Forcefield>
MMFF

> <ForcefieldBase>
MMFF

> <ForcefieldFFML>
<?xml version="1.0" encoding="UTF-8"?>
<!DOCTYPE ffml SYSTEM "Ffml.dtd">
<ffml version="1.0">
<forcefield name="MMFF" derivedFrom="MMFF" base="MMFF">
<atomTypes>
<atomType
name="C100"
element="C"
mass="12.011"
annotation=""/>
<atomType
name="S101"
element="S"
mass="32.066"
annotation=""/>
<atomType
name="N102"
element="N"
mass="14.007"
annotation=""/>
<atomType
name="O103"
element="O"
mass="16"
annotation=""/>
<atomType
name="Cl104"
element="Cl"
mass="35.453"
annotation=""/>
<atomType
name="F105"
element="F"
mass="18.998"
annotation=""/>
<atomType
name="H106"
element="H"
mass="1.008"
annotation=""/>
</atomTypes>
<parameters>
</parameters>
</forcefield>
</ffml>

> <Initial Potential Energy>
547.61814

> <Initial RMS Gradient>
125.03519

> <Minimization Criteria>
STEEPD> Minimization exiting with gradient tolerance ( 3.0000000) satisfied.

> <CHARMm Energy>
21.41888

> <Potential Energy>
21.41888

> <RMS Gradient>
0.02968

> <Bond Energy>
4.08051

> <Angle Energy>
13.53698

> <STRBend>
0.5519

> <Dihedral Energy>
7.36149

> <OOPLane>
0.12048

> <Van der Waals Energy>
53.9799

> <Electrostatic Energy>
-58.21237

> <Hydrogen Bond Energy>
0

> <Solvation Free Energy>
0

> <HasGasteigerCharges>
true

> <REMARK99>
REMARK  99  MacroMolecule created from Mol2 file
REMARK  99  CHEMBL2338483
REMARK  99  PROTEIN
REMARK  99  GASTEIGER
REMARK  99
REMARK  99

$$$$
CHEMBL2322443
  SciTegic05292516403D

 66 72  0  0  0  0            999 V2000
   11.7777  -21.8103    0.8780 C   0  0
   12.8368  -21.7387    1.7885 C   0  0
   14.0270  -21.0993    1.4374 C   0  0
   14.1567  -20.5243    0.1754 C   0  0
   13.0964  -20.5963   -0.7257 C   0  0
   11.8976  -21.2377   -0.3962 C   0  0
    8.4403  -21.2602   -0.5424 C   0  0
    9.5895  -20.5596   -1.0011 N   0  0
    9.6337  -19.1604   -1.0863 C   0  0
    8.5816  -18.4000   -0.7363 C   0  0
    7.3326  -20.3974   -0.2013 C   0  0
    7.4044  -19.0336   -0.2825 C   0  0
    6.2837  -18.4149    0.1400 N   0  0
    5.4698  -19.4003    0.4999 C   0  0
    6.0570  -20.6456    0.2641 N   0  0
    4.0979  -19.1846    1.0699 C   0  0
    3.9776  -17.8474    1.7891 C   0  0
    5.5220  -21.9794    0.5119 C   0  0  1  0  0  0
    4.3586  -23.3619    2.1931 C   0  0
    5.5100  -22.3639    2.0054 C   0  0
    3.4312  -22.9869    1.0774 C   0  0
    4.0859  -22.2109    0.1120 C   0  0
    3.4298  -21.8369   -1.0501 C   0  0
    2.0909  -22.2077   -1.2111 C   0  0
    1.4141  -22.9747   -0.2353 C   0  0
    2.1071  -23.3704    0.9205 C   0  0
    0.0021  -23.3410   -0.4294 C   0  0
   -0.9632  -22.3384   -0.1741 C   0  0
   -2.3281  -22.5792   -0.3177 C   0  0
   -2.7631  -23.8320   -0.7189 C   0  0
   -1.8290  -24.8366   -0.9719 C   0  0
   -0.4409  -24.6226   -0.8384 C   0  0
    0.4234  -25.7729   -1.1465 C   0  0
    1.7702  -25.7510   -1.3949 N   0  0
    2.2223  -26.9805   -1.6727 N   0  0
    1.1578  -27.7618   -1.5978 N   0  0
    0.0386  -27.0350   -1.2799 N   0  0
    8.4098  -22.4825   -0.4251 O   0  0
   10.7736  -21.3262   -1.3975 C   0  0
   13.2451  -20.0359   -1.9351 F   0  0
   10.8617  -22.3225    1.1656 H   0  0
   12.7338  -22.1865    2.7744 H   0  0
   14.8512  -21.0525    2.1451 H   0  0
   15.0771  -20.0251   -0.1135 H   0  0
   10.5599  -18.7116   -1.4412 H   0  0
    8.6159  -17.3183   -0.7923 H   0  0
    3.3645  -19.2140    0.2572 H   0  0
    3.8413  -19.9706    1.7843 H   0  0
    2.9726  -17.7322    2.2076 H   0  0
    4.1549  -17.0089    1.1071 H   0  0
    4.6993  -17.7744    2.6097 H   0  0
    6.1104  -22.7063   -0.0554 H   0  0
    4.7065  -24.3916    2.0599 H   0  0
    3.8923  -23.2509    3.1761 H   0  0
    5.3315  -21.4862    2.6402 H   0  0
    6.4696  -22.7842    2.3272 H   0  0
    3.9334  -21.2554   -1.8185 H   0  0
    1.5672  -21.8932   -2.1134 H   0  0
    1.6168  -23.9691    1.6854 H   0  0
   -0.6470  -21.3475    0.1507 H   0  0
   -3.0490  -21.7917   -0.1122 H   0  0
   -3.8235  -24.0317   -0.8352 H   0  0
   -2.1914  -25.8129   -1.2874 H   0  0
    2.4177  -24.9752   -1.4069 H   0  0
   10.5170  -22.3830   -1.5377 H   0  0
   11.0908  -20.9647   -2.3838 H   0  0
  1  2  2  0
  1 41  1  0
  2  3  1  0
  2 42  1  0
  3  4  2  0
  3 43  1  0
  4  5  1  0
  4 44  1  0
  5  6  2  0
  5 40  1  0
  6  1  1  0
  7  8  1  0
  7 38  2  0
  8  9  1  0
  8 39  1  0
  9 10  2  0
  9 45  1  0
 10 12  1  0
 10 46  1  0
 11  7  1  0
 11 12  2  0
 12 13  1  0
 13 14  2  0
 14 15  1  0
 14 16  1  0
 15 11  1  0
 16 17  1  0
 16 47  1  0
 16 48  1  0
 17 49  1  0
 17 50  1  0
 17 51  1  0
 18 15  1  0
 18 22  1  0
 18 52  1  0
 19 20  1  0
 19 53  1  0
 19 54  1  0
 20 18  1  0
 20 55  1  0
 20 56  1  0
 21 19  1  0
 21 22  2  0
 22 23  1  0
 23 24  2  0
 23 57  1  0
 24 25  1  0
 24 58  1  0
 25 26  2  0
 25 27  1  0
 26 21  1  0
 26 59  1  0
 27 28  2  0
 28 29  1  0
 28 60  1  0
 29 30  2  0
 29 61  1  0
 30 31  1  0
 30 62  1  0
 31 32  2  0
 31 63  1  0
 32 27  1  0
 32 33  1  0
 33 34  1  0
 34 35  1  0
 34 64  1  0
 35 36  2  0
 36 37  1  0
 37 33  2  0
 39  6  1  0
 39 65  1  0
 39 66  1  0
M  END
> <Name>
CHEMBL2322443

> <Clean Energy>
107.857002

> <chembl_id>
CHEMBL2322443

> <chembl_pref_name>
None

> <efficacy>
0.239130435

> <Forcefield>
MMFF

> <ForcefieldBase>
MMFF

> <ForcefieldFFML>
<?xml version="1.0" encoding="UTF-8"?>
<!DOCTYPE ffml SYSTEM "Ffml.dtd">
<ffml version="1.0">
<forcefield name="MMFF" derivedFrom="MMFF" base="MMFF">
<atomTypes>
<atomType
name="C100"
element="C"
mass="12.011"
annotation=""/>
<atomType
name="N101"
element="N"
mass="14.007"
annotation=""/>
<atomType
name="O102"
element="O"
mass="16"
annotation=""/>
<atomType
name="F103"
element="F"
mass="18.998"
annotation=""/>
<atomType
name="H104"
element="H"
mass="1.008"
annotation=""/>
</atomTypes>
<parameters>
</parameters>
</forcefield>
</ffml>

> <Initial Potential Energy>
236.62868

> <Initial RMS Gradient>
36.32834

> <Minimization Criteria>
STEEPD> Minimization exiting with gradient tolerance ( 3.0000000) satisfied.

> <CHARMm Energy>
57.49145

> <Potential Energy>
57.49145

> <RMS Gradient>
0.06964

> <Bond Energy>
10.63518

> <Angle Energy>
20.09122

> <STRBend>
-0.61382

> <Dihedral Energy>
4.67292

> <OOPLane>
0.09164

> <Van der Waals Energy>
69.18972

> <Electrostatic Energy>
-46.57542

> <Hydrogen Bond Energy>
0

> <Solvation Free Energy>
0

> <HasGasteigerCharges>
true

> <REMARK99>
REMARK  99  MacroMolecule created from Mol2 file
REMARK  99  CHEMBL2322443
REMARK  99  PROTEIN
REMARK  99  GASTEIGER
REMARK  99
REMARK  99

$$$$
CHEMBL2424948
  SciTegic05292516403D

 60 63  0  0  0  0            999 V2000
    4.2146  -18.5301   -0.5896 S   0  0
    4.9112  -18.9576   -1.7849 O   0  0
    3.5524  -17.2427   -0.5090 O   0  0
    7.0416  -17.0612    0.0579 C   0  0
    6.6541  -18.3367    0.4531 C   0  0
    7.6370  -19.3207    0.5503 C   0  0
    8.9527  -19.1182    0.2994 N   0  0
    9.3064  -17.8640   -0.0730 C   0  0
    8.3889  -16.8172   -0.2171 C   0  0
   10.6343  -17.6130   -0.3521 O   0  0
   11.5712  -18.5654    0.1756 C   0  0
   11.9924  -19.5580   -0.9104 C   0  0
   13.1211  -20.4740   -0.4331 C   0  0
   14.2287  -19.6777    0.1046 N   0  0
   13.8751  -18.7062    1.1474 C   0  0
   12.7894  -17.7701    0.6428 C   0  0
   15.5458  -20.1100    0.0197 C   0  0
   15.9045  -21.4657   -0.0333 C   0  0
   17.2424  -21.8686   -0.1165 C   0  0
   18.2536  -20.9154   -0.1587 C   0  0
   17.9293  -19.5639   -0.1240 C   0  0
   16.5905  -19.1727   -0.0381 C   0  0
    8.8692  -15.2319   -0.6974 Cl  0  0
    5.2826  -18.6501    0.7385 N   0  0
    3.0009  -19.7741   -0.2304 C   0  0
    1.6509  -19.4239   -0.2726 C   0  0
    0.6818  -20.3906   -0.0063 C   0  0
    1.0419  -21.7053    0.3031 C   0  0
    2.3949  -22.0499    0.3544 C   0  0
    3.3759  -21.0867    0.0701 C   0  0
    4.7027  -21.4110    0.1933 O   0  0
    5.1155  -22.2948   -0.8557 C   0  0
   -0.0170  -22.5344    0.5496 O   0  0
    0.2485  -23.9235    0.7084 C   0  0
    6.3099  -16.2638   -0.0340 H   0  0
    7.3890  -20.3374    0.8409 H   0  0
   11.1733  -19.0974    1.0503 H   0  0
   11.1337  -20.1596   -1.2299 H   0  0
   12.3165  -19.0044   -1.8022 H   0  0
   12.7533  -21.1627    0.3370 H   0  0
   13.4480  -21.0750   -1.2905 H   0  0
   13.5272  -19.2479    2.0367 H   0  0
   14.7274  -18.0991    1.4707 H   0  0
   13.1717  -17.1528   -0.1807 H   0  0
   12.4949  -17.0703    1.4340 H   0  0
   15.1397  -22.2357    0.0119 H   0  0
   17.4948  -22.9257   -0.1474 H   0  0
   19.2923  -21.2257   -0.2251 H   0  0
   18.7137  -18.8127   -0.1741 H   0  0
   16.3495  -18.1122   -0.0528 H   0  0
    5.1475  -19.5441    1.2175 H   0  0
    1.3368  -18.4096   -0.5125 H   0  0
   -0.3682  -20.1122   -0.0399 H   0  0
    2.6998  -23.0522    0.6350 H   0  0
    6.2086  -22.3301   -0.8487 H   0  0
    4.7926  -21.9340   -1.8388 H   0  0
    4.7426  -23.3086   -0.6774 H   0  0
   -0.7113  -24.4407    0.7986 H   0  0
    0.8189  -24.1078    1.6242 H   0  0
    0.7683  -24.3282   -0.1664 H   0  0
  1  3  2  0
  1 25  1  0
  2  1  2  0
  4  5  2  0
  4 35  1  0
  5  6  1  0
  5 24  1  0
  6  7  2  0
  6 36  1  0
  7  8  1  0
  8  9  2  0
  8 10  1  0
  9  4  1  0
  9 23  1  0
 10 11  1  0
 11 12  1  0
 11 16  1  0
 11 37  1  0
 12 13  1  0
 12 38  1  0
 12 39  1  0
 13 14  1  0
 13 40  1  0
 13 41  1  0
 14 15  1  0
 14 17  1  0
 15 16  1  0
 15 42  1  0
 15 43  1  0
 16 44  1  0
 16 45  1  0
 17 18  2  0
 18 19  1  0
 18 46  1  0
 19 20  2  0
 19 47  1  0
 20 21  1  0
 20 48  1  0
 21 22  2  0
 21 49  1  0
 22 17  1  0
 22 50  1  0
 24  1  1  0
 24 51  1  0
 25 26  2  0
 26 27  1  0
 26 52  1  0
 27 28  2  0
 27 53  1  0
 28 29  1  0
 28 33  1  0
 29 30  2  0
 29 54  1  0
 30 25  1  0
 30 31  1  0
 31 32  1  0
 32 55  1  0
 32 56  1  0
 32 57  1  0
 33 34  1  0
 34 58  1  0
 34 59  1  0
 34 60  1  0
M  END
> <Name>
CHEMBL2424948

> <Clean Energy>
10.1108

> <chembl_id>
CHEMBL2424948

> <chembl_pref_name>
None

> <efficacy>
0.17

> <Forcefield>
MMFF

> <ForcefieldBase>
MMFF

> <ForcefieldFFML>
<?xml version="1.0" encoding="UTF-8"?>
<!DOCTYPE ffml SYSTEM "Ffml.dtd">
<ffml version="1.0">
<forcefield name="MMFF" derivedFrom="MMFF" base="MMFF">
<atomTypes>
<atomType
name="S100"
element="S"
mass="32.066"
annotation=""/>
<atomType
name="O101"
element="O"
mass="16"
annotation=""/>
<atomType
name="C102"
element="C"
mass="12.011"
annotation=""/>
<atomType
name="N103"
element="N"
mass="14.007"
annotation=""/>
<atomType
name="Cl104"
element="Cl"
mass="35.453"
annotation=""/>
<atomType
name="H105"
element="H"
mass="1.008"
annotation=""/>
</atomTypes>
<parameters>
</parameters>
</forcefield>
</ffml>

> <Initial Potential Energy>
118.30093

> <Initial RMS Gradient>
30.85136

> <Minimization Criteria>
STEEPD> Minimization exiting with gradient tolerance ( 3.0000000) satisfied.

> <CHARMm Energy>
27.428

> <Potential Energy>
27.428

> <RMS Gradient>
0.12997

> <Bond Energy>
4.92358

> <Angle Energy>
24.94896

> <STRBend>
1.07913

> <Dihedral Energy>
18.34195

> <OOPLane>
0.83142

> <Van der Waals Energy>
71.16951

> <Electrostatic Energy>
-93.86654

> <Hydrogen Bond Energy>
0

> <Solvation Free Energy>
0

> <HasGasteigerCharges>
true

> <REMARK99>
REMARK  99  MacroMolecule created from Mol2 file
REMARK  99  CHEMBL2424948
REMARK  99  PROTEIN
REMARK  99  GASTEIGER
REMARK  99
REMARK  99

$$$$
CHEMBL472245
  SciTegic05292516403D

 43 45  0  0  0  0            999 V2000
   -0.3921   -3.7065    0.1126 C   0  0
   -0.3866   -4.5581    1.2125 C   0  0
    0.8015   -5.1497    1.6362 C   0  0
    1.9962   -4.8916    0.9540 C   0  0
    2.0023   -4.0472   -0.1545 C   0  0
    0.8026   -3.4568   -0.5678 C   0  0
   -1.8507   -4.8860    2.0525 Cl  0  0
    3.0797   -3.7221   -0.9244 O   0  0
    4.3869   -4.2130   -0.5846 C   0  0  2  0  0  0
    5.3910   -3.1843   -1.1318 C   0  0
    4.6044   -5.5841   -1.2581 C   0  0
    6.6740   -3.4091   -0.7427 O   0  0
    5.1063   -2.2219   -1.8335 O   0  0
    5.7687   -6.3958   -0.7215 C   0  0
    6.9217   -6.5924   -1.5009 C   0  0
    8.0047   -7.3316   -1.0078 C   0  0
    7.9346   -7.8999    0.2627 C   0  0
    6.8016   -7.7071    1.0517 C   0  0
    5.7197   -6.9677    0.5585 C   0  0
    9.0158   -8.5509    0.8056 O   0  0
    9.2999   -9.8397    0.3995 C   0  0
    8.4554  -10.6566   -0.3519 C   0  0
    8.8524  -11.9592   -0.6804 C   0  0
   10.0852  -12.4578   -0.2507 C   0  0
   10.9296  -11.6520    0.5110 C   0  0
   10.5343  -10.3469    0.8319 C   0  0
   -1.3140   -3.2369   -0.2214 H   0  0
    0.8064   -5.8154    2.4956 H   0  0
    2.8935   -5.3749    1.3176 H   0  0
    0.8014   -2.7943   -1.4311 H   0  0
    4.5254   -4.2253    0.5026 H   0  0
    3.7016   -6.2009   -1.1593 H   0  0
    4.7221   -5.4429   -2.3412 H   0  0
    6.8142   -4.1827   -0.1622 H   0  0
    6.9937   -6.1634   -2.5000 H   0  0
    8.9000   -7.4574   -1.6119 H   0  0
    6.7606   -8.1360    2.0500 H   0  0
    4.8382   -6.8551    1.1853 H   0  0
    7.4831  -10.3088   -0.6886 H   0  0
    8.1854  -12.5765   -1.2760 H   0  0
   10.3885  -13.4716   -0.5071 H   0  0
   11.8898  -12.0408    0.8508 H   0  0
   11.1895   -9.7134    1.4247 H   0  0
  1  2  2  0
  1 27  1  0
  2  3  1  0
  2  7  1  0
  3  4  2  0
  3 28  1  0
  4  5  1  0
  4 29  1  0
  5  6  2  0
  5  8  1  0
  6  1  1  0
  6 30  1  0
  8  9  1  0
  9 10  1  0
  9 11  1  0
  9 31  1  0
 10 12  1  0
 10 13  2  0
 11 14  1  0
 11 32  1  0
 11 33  1  0
 12 34  1  0
 14 15  2  0
 15 16  1  0
 15 35  1  0
 16 17  2  0
 16 36  1  0
 17 18  1  0
 17 20  1  0
 18 19  2  0
 18 37  1  0
 19 14  1  0
 19 38  1  0
 20 21  1  0
 21 22  2  0
 22 23  1  0
 22 39  1  0
 23 24  2  0
 23 40  1  0
 24 25  1  0
 24 41  1  0
 25 26  2  0
 25 42  1  0
 26 21  1  0
 26 43  1  0
M  END
> <Name>
CHEMBL472245

> <Clean Energy>
30.737301

> <chembl_id>
CHEMBL472245

> <chembl_pref_name>
None

> <efficacy>
0.32

> <Forcefield>
MMFF

> <ForcefieldBase>
MMFF

> <ForcefieldFFML>
<?xml version="1.0" encoding="UTF-8"?>
<!DOCTYPE ffml SYSTEM "Ffml.dtd">
<ffml version="1.0">
<forcefield name="MMFF" derivedFrom="MMFF" base="MMFF">
<atomTypes>
<atomType
name="C100"
element="C"
mass="12.011"
annotation=""/>
<atomType
name="Cl101"
element="Cl"
mass="35.453"
annotation=""/>
<atomType
name="O102"
element="O"
mass="16"
annotation=""/>
<atomType
name="H103"
element="H"
mass="1.008"
annotation=""/>
</atomTypes>
<parameters>
</parameters>
</forcefield>
</ffml>

> <Initial Potential Energy>
218.24116

> <Initial RMS Gradient>
42.82319

> <Minimization Criteria>
STEEPD> Minimization exiting with gradient tolerance ( 3.0000000) satisfied.

> <CHARMm Energy>
78.86201

> <Potential Energy>
78.86201

> <RMS Gradient>
0.01941

> <Bond Energy>
5.61226

> <Angle Energy>
16.7961

> <STRBend>
0.42402

> <Dihedral Energy>
4.33605

> <OOPLane>
0.10611

> <Van der Waals Energy>
53.24044

> <Electrostatic Energy>
-1.65297

> <Hydrogen Bond Energy>
0

> <Solvation Free Energy>
0

> <HasGasteigerCharges>
true

> <REMARK99>
REMARK  99  MacroMolecule created from Mol2 file
REMARK  99  CHEMBL472245
REMARK  99  PROTEIN
REMARK  99  GASTEIGER
REMARK  99
REMARK  99

$$$$
CHEMBL2338479
  SciTegic05292516403D

 38 40  0  0  0  0            999 V2000
   11.3832  -12.0527    0.4185 C   0  0
   10.3259  -12.6229   -0.3009 C   0  0
    9.2510  -11.7829   -0.6276 C   0  0
    9.2384  -10.4129   -0.2635 C   0  0
   10.3193   -9.8350    0.4098 C   0  0
   11.3672  -10.6846    0.7898 C   0  0
    9.9785   -7.1896   -0.3416 S   0  0
   10.3725   -8.4310    0.7902 N   0  0
    8.2678   -6.8509   -0.0314 C   0  0
    7.5001   -6.1688   -0.9809 C   0  0
    6.1421   -5.9330   -0.7326 C   0  0
    5.5620   -6.3814    0.4533 C   0  0
    6.3277   -7.0353    1.4142 C   0  0
    7.6849   -7.2627    1.1780 C   0  0
   10.4723  -13.8442   -0.9393 O   0  0
    9.6287  -15.2659    0.9138 C   0  0
   10.1430  -15.0484   -0.3544 C   0  0
   10.3583  -16.1914   -1.1530 C   0  0
   10.0604  -17.4789   -0.6722 C   0  0
    9.5513  -17.5773    0.6136 C   0  0
    9.3287  -16.5058    1.4162 N   0  0
   10.2572  -18.6752   -1.4474 C   0  0
   10.1083   -7.8049   -1.6457 O   0  0
   10.7203   -6.0150    0.0647 O   0  0
    3.8936   -6.0831    0.7503 Cl  0  0
    8.1387   -5.5194   -2.4496 Cl  0  0
    7.9194  -12.3789   -1.5533 Cl  0  0
   12.7903  -12.9773    0.8149 Cl  0  0
   10.3991  -19.6680   -2.0362 N   0  0
    8.3887   -9.8069   -0.5655 H   0  0
   12.2198  -10.2828    1.3329 H   0  0
   11.1587   -8.0988    1.3581 H   0  0
    5.5382   -5.3939   -1.4597 H   0  0
    5.8773   -7.3456    2.3550 H   0  0
    8.2747   -7.7389    1.9561 H   0  0
    9.4329  -14.4516    1.6046 H   0  0
   10.7641  -16.0619   -2.1561 H   0  0
    9.2976  -18.5420    1.0534 H   0  0
  1  2  1  0
  1  6  2  0
  1 28  1  0
  2  3  2  0
  2 15  1  0
  3  4  1  0
  3 27  1  0
  4  5  2  0
  4 30  1  0
  5  6  1  0
  5  8  1  0
  6 31  1  0
  7  8  1  0
  7  9  1  0
  7 23  2  0
  7 24  2  0
  8 32  1  0
  9 10  1  0
  9 14  2  0
 10 11  2  0
 10 26  1  0
 11 12  1  0
 11 33  1  0
 12 13  2  0
 12 25  1  0
 13 14  1  0
 13 34  1  0
 14 35  1  0
 15 17  1  0
 16 17  1  0
 16 21  2  0
 16 36  1  0
 17 18  2  0
 18 19  1  0
 18 37  1  0
 19 20  2  0
 19 22  1  0
 20 21  1  0
 20 38  1  0
 22 29  3  0
M  END
> <Name>
CHEMBL2338479

> <Clean Energy>
91.800499

> <chembl_id>
CHEMBL2338479

> <chembl_pref_name>
None

> <efficacy>
0.2

> <Forcefield>
MMFF

> <ForcefieldBase>
MMFF

> <ForcefieldFFML>
<?xml version="1.0" encoding="UTF-8"?>
<!DOCTYPE ffml SYSTEM "Ffml.dtd">
<ffml version="1.0">
<forcefield name="MMFF" derivedFrom="MMFF" base="MMFF">
<atomTypes>
<atomType
name="C100"
element="C"
mass="12.011"
annotation=""/>
<atomType
name="S101"
element="S"
mass="32.066"
annotation=""/>
<atomType
name="N102"
element="N"
mass="14.007"
annotation=""/>
<atomType
name="O103"
element="O"
mass="16"
annotation=""/>
<atomType
name="Cl104"
element="Cl"
mass="35.453"
annotation=""/>
<atomType
name="H105"
element="H"
mass="1.008"
annotation=""/>
</atomTypes>
<parameters>
</parameters>
</forcefield>
</ffml>

> <Initial Potential Energy>
3842.80156

> <Initial RMS Gradient>
4101.60255

> <Minimization Criteria>
STEEPD> Minimization exiting with gradient tolerance ( 3.0000000) satisfied.

> <CHARMm Energy>
11.78038

> <Potential Energy>
11.78038

> <RMS Gradient>
0.27407

> <Bond Energy>
6.14804

> <Angle Energy>
19.52498

> <STRBend>
1.76954

> <Dihedral Energy>
9.61598

> <OOPLane>
0.65605

> <Van der Waals Energy>
47.58697

> <Electrostatic Energy>
-73.52117

> <Hydrogen Bond Energy>
0

> <Solvation Free Energy>
0

> <HasGasteigerCharges>
true

> <REMARK99>
REMARK  99  MacroMolecule created from Mol2 file
REMARK  99  CHEMBL2338479
REMARK  99  PROTEIN
REMARK  99  GASTEIGER
REMARK  99
REMARK  99

$$$$
CHEMBL2424953
  SciTegic05292516403D

 55 58  0  0  0  0            999 V2000
   13.2330  -16.1604   -0.6352 S   0  0
   13.9068  -16.6379   -1.8230 O   0  0
   12.6581  -14.8311   -0.5571 O   0  0
   16.0106  -14.7062   -0.1002 C   0  0
   15.6738  -15.9550    0.4088 C   0  0
   16.7213  -16.8209    0.7263 C   0  0
   18.0460  -16.5441    0.5430 N   0  0
   18.3387  -15.3385    0.0048 C   0  0
   17.3552  -14.4015   -0.3293 C   0  0
   19.6570  -15.0262   -0.2460 O   0  0
   20.6350  -15.9325    0.2885 C   0  0
   21.0269  -16.9850   -0.7542 C   0  0
   22.2064  -17.8431   -0.2858 C   0  0
   23.3171  -16.9844    0.1345 N   0  0
   22.9938  -15.9639    1.1392 C   0  0
   21.8578  -15.0855    0.6429 C   0  0
   24.6427  -17.3741   -0.0103 C   0  0
   25.0571  -18.7144    0.0180 C   0  0
   26.4040  -19.0697   -0.1234 C   0  0
   27.3674  -18.0842   -0.3078 C   0  0
   26.9860  -16.7483   -0.3579 C   0  0
   25.6396  -16.4046   -0.2127 C   0  0
   17.7327  -12.8651   -1.0079 Cl  0  0
   14.3001  -16.3218    0.6983 N   0  0
   11.9232  -17.3048   -0.2433 C   0  0
   10.7964  -16.8409    0.4440 C   0  0
    9.6856  -17.6761    0.6102 C   0  0
    9.6785  -18.9784    0.0853 C   0  0
   10.8266  -19.4318   -0.5948 C   0  0
   11.9444  -18.6016   -0.7615 C   0  0
    8.4425  -19.8568    0.1959 C   0  0
    7.6878  -19.8402   -0.9374 F   0  0
    8.7559  -21.1610    0.4242 F   0  0
    7.6065  -19.4880    1.2067 F   0  0
   15.2481  -13.9718   -0.3429 H   0  0
   16.5202  -17.8007    1.1517 H   0  0
   20.2895  -16.4117    1.2143 H   0  0
   20.1698  -17.6271   -0.9875 H   0  0
   21.2865  -16.4819   -1.6954 H   0  0
   21.9012  -18.4876    0.5473 H   0  0
   22.5025  -18.4911   -1.1196 H   0  0
   22.7093  -16.4612    2.0753 H   0  0
   23.8468  -15.3198    1.3797 H   0  0
   22.1795  -14.5083   -0.2342 H   0  0
   21.5888  -14.3468    1.4077 H   0  0
   24.3341  -19.5094    0.1739 H   0  0
   26.7010  -20.1150   -0.0877 H   0  0
   28.4123  -18.3585   -0.4193 H   0  0
   27.7314  -15.9737   -0.5189 H   0  0
   25.3484  -15.3598   -0.2943 H   0  0
   13.9219  -15.7151    1.4333 H   0  0
   10.7472  -15.8193    0.8173 H   0  0
    8.8106  -17.2890    1.1300 H   0  0
   10.8368  -20.4334   -1.0256 H   0  0
   12.8074  -18.9583   -1.3231 H   0  0
  1  3  2  0
  1 25  1  0
  2  1  2  0
  4  5  2  0
  4 35  1  0
  5  6  1  0
  5 24  1  0
  6  7  2  0
  6 36  1  0
  7  8  1  0
  8  9  2  0
  8 10  1  0
  9  4  1  0
  9 23  1  0
 10 11  1  0
 11 12  1  0
 11 16  1  0
 11 37  1  0
 12 13  1  0
 12 38  1  0
 12 39  1  0
 13 14  1  0
 13 40  1  0
 13 41  1  0
 14 15  1  0
 14 17  1  0
 15 16  1  0
 15 42  1  0
 15 43  1  0
 16 44  1  0
 16 45  1  0
 17 18  2  0
 18 19  1  0
 18 46  1  0
 19 20  2  0
 19 47  1  0
 20 21  1  0
 20 48  1  0
 21 22  2  0
 21 49  1  0
 22 17  1  0
 22 50  1  0
 24  1  1  0
 24 51  1  0
 25 26  2  0
 26 27  1  0
 26 52  1  0
 27 28  2  0
 27 53  1  0
 28 29  1  0
 28 31  1  0
 29 30  2  0
 29 54  1  0
 30 25  1  0
 30 55  1  0
 31 32  1  0
 31 33  1  0
 31 34  1  0
M  END
> <Name>
CHEMBL2424953

> <Clean Energy>
22.835699

> <chembl_id>
CHEMBL2424953

> <chembl_pref_name>
None

> <efficacy>
0.14

> <Forcefield>
MMFF

> <ForcefieldBase>
MMFF

> <ForcefieldFFML>
<?xml version="1.0" encoding="UTF-8"?>
<!DOCTYPE ffml SYSTEM "Ffml.dtd">
<ffml version="1.0">
<forcefield name="MMFF" derivedFrom="MMFF" base="MMFF">
<atomTypes>
<atomType
name="S100"
element="S"
mass="32.066"
annotation=""/>
<atomType
name="O101"
element="O"
mass="16"
annotation=""/>
<atomType
name="C102"
element="C"
mass="12.011"
annotation=""/>
<atomType
name="N103"
element="N"
mass="14.007"
annotation=""/>
<atomType
name="Cl104"
element="Cl"
mass="35.453"
annotation=""/>
<atomType
name="F105"
element="F"
mass="18.998"
annotation=""/>
<atomType
name="H106"
element="H"
mass="1.008"
annotation=""/>
</atomTypes>
<parameters>
</parameters>
</forcefield>
</ffml>

> <Initial Potential Energy>
134.1831

> <Initial RMS Gradient>
32.62169

> <Minimization Criteria>
CONJUG> Minimization exiting with gradient tolerance ( 0.0100000) satisfied.

> <CHARMm Energy>
54.06882

> <Potential Energy>
54.06882

> <RMS Gradient>
0.00995

> <Bond Energy>
6.16471

> <Angle Energy>
17.65761

> <STRBend>
1.07998

> <Dihedral Energy>
12.08576

> <OOPLane>
0.91062

> <Van der Waals Energy>
62.24901

> <Electrostatic Energy>
-46.07888

> <Hydrogen Bond Energy>
0

> <Solvation Free Energy>
0

> <HasGasteigerCharges>
true

> <REMARK99>
REMARK  99  MacroMolecule created from Mol2 file
REMARK  99  CHEMBL2424953
REMARK  99  PROTEIN
REMARK  99  GASTEIGER
REMARK  99
REMARK  99

$$$$
CHEMBL2260190
  SciTegic05292516403D

 60 65  0  0  0  0            999 V2000
   10.9283   -9.2813   -1.3642 C   0  0
   10.4644  -10.1932   -0.4050 C   0  0
   11.3638  -11.0550    0.2467 C   0  0
   12.2918   -9.1633   -1.6567 C   0  0
   13.1956   -9.9988   -0.9896 C   0  0
   12.7225  -10.9314   -0.0691 C   0  0
   13.8529  -11.6004    0.3371 N   0  0
   14.9249  -11.0333   -0.2970 C   0  0
   14.5581  -10.0664   -1.1061 N   0  0
   13.9400  -12.6767    1.3136 C   0  0
   13.2451  -13.9554    0.9017 C   0  0
   13.1820  -14.3920   -0.4283 C   0  0
   12.5657  -15.6064   -0.7549 C   0  0
   12.0246  -16.4383    0.2371 C   0  0
   12.1037  -16.0052    1.5683 C   0  0
   12.7060  -14.7852    1.8966 C   0  0
   11.4189  -17.7412   -0.0978 C   0  0
   10.0719  -17.9947    0.2210 C   0  0
    9.4694  -19.2231   -0.0876 C   0  0
   10.1937  -20.2262   -0.7309 C   0  0
   11.5245  -19.9970   -1.0697 C   0  0
   12.1309  -18.7726   -0.7425 C   0  0
   13.5468  -18.6141   -1.1143 C   0  0
   14.2957  -18.5987    0.0148 O   0  0
   13.9443  -18.5677   -2.2660 O   0  0
   15.7018  -18.5352   -0.2271 C   0  0
    9.0358  -10.3015   -0.1043 C   0  0
    8.2006   -9.2496    0.2198 N   0  0
    8.3664  -11.4406   -0.0831 N   0  0
    7.0605  -11.1067    0.1595 C   0  0
    6.9201   -9.7354    0.3473 C   0  0
    5.6847   -9.1305    0.6062 C   0  0
    4.5676   -9.9701    0.6667 C   0  0
    4.6849  -11.3483    0.4838 C   0  0
    5.9288  -11.9316    0.2310 C   0  0
    8.5897   -7.8757    0.4360 C   0  0
   10.2259   -8.6668   -1.9206 H   0  0
   11.0059  -11.7991    0.9527 H   0  0
   12.6498   -8.4604   -2.3996 H   0  0
   15.9432  -11.3616   -0.1369 H   0  0
   14.9997  -12.8870    1.4983 H   0  0
   13.5051  -12.2784    2.2384 H   0  0
   13.6097  -13.7998   -1.2360 H   0  0
   12.5295  -15.9063   -1.8023 H   0  0
   11.7197  -16.6356    2.3689 H   0  0
   12.7621  -14.4983    2.9451 H   0  0
    9.4738  -17.2247    0.7069 H   0  0
    8.4262  -19.3890    0.1692 H   0  0
    9.7219  -21.1759   -0.9746 H   0  0
   12.0969  -20.7627   -1.5866 H   0  0
   15.9575  -17.6083   -0.7500 H   0  0
   16.0327  -19.4078   -0.7990 H   0  0
   16.2125  -18.5400    0.7397 H   0  0
    5.5809   -8.0602    0.7474 H   0  0
    3.5887   -9.5378    0.8568 H   0  0
    3.8007  -11.9769    0.5325 H   0  0
    6.0236  -13.0007    0.0818 H   0  0
    7.9021   -7.4085    1.1454 H   0  0
    8.5520   -7.3535   -0.5229 H   0  0
    9.5965   -7.8410    0.8588 H   0  0
  1  2  2  0
  1 37  1  0
  2  3  1  0
  2 27  1  0
  3  6  2  0
  3 38  1  0
  4  1  1  0
  4 39  1  0
  5  4  2  0
  5  6  1  0
  6  7  1  0
  7  8  1  0
  7 10  1  0
  8  9  2  0
  8 40  1  0
  9  5  1  0
 10 11  1  0
 10 41  1  0
 10 42  1  0
 11 12  2  0
 12 13  1  0
 12 43  1  0
 13 14  2  0
 13 44  1  0
 14 15  1  0
 14 17  1  0
 15 16  2  0
 15 45  1  0
 16 11  1  0
 16 46  1  0
 17 18  2  0
 18 19  1  0
 18 47  1  0
 19 20  2  0
 19 48  1  0
 20 21  1  0
 20 49  1  0
 21 22  2  0
 21 50  1  0
 22 17  1  0
 22 23  1  0
 23 24  1  0
 23 25  2  0
 24 26  1  0
 26 51  1  0
 26 52  1  0
 26 53  1  0
 27 28  1  0
 28 31  1  0
 28 36  1  0
 29 27  2  0
 30 29  1  0
 30 31  2  0
 31 32  1  0
 32 33  2  0
 32 54  1  0
 33 34  1  0
 33 55  1  0
 34 35  2  0
 34 56  1  0
 35 30  1  0
 35 57  1  0
 36 58  1  0
 36 59  1  0
 36 60  1  0
M  END
> <Name>
CHEMBL2260190

> <Clean Energy>
80.700897

> <chembl_id>
CHEMBL2260190

> <chembl_pref_name>
None

> <efficacy>
0.063

> <Forcefield>
MMFF

> <ForcefieldBase>
MMFF

> <ForcefieldFFML>
<?xml version="1.0" encoding="UTF-8"?>
<!DOCTYPE ffml SYSTEM "Ffml.dtd">
<ffml version="1.0">
<forcefield name="MMFF" derivedFrom="MMFF" base="MMFF">
<atomTypes>
<atomType
name="C100"
element="C"
mass="12.011"
annotation=""/>
<atomType
name="N101"
element="N"
mass="14.007"
annotation=""/>
<atomType
name="O102"
element="O"
mass="16"
annotation=""/>
<atomType
name="H103"
element="H"
mass="1.008"
annotation=""/>
</atomTypes>
<parameters>
</parameters>
</forcefield>
</ffml>

> <Initial Potential Energy>
736.55425

> <Initial RMS Gradient>
300.69684

> <Minimization Criteria>
STEEPD> Minimization exiting with gradient tolerance ( 3.0000000) satisfied.

> <CHARMm Energy>
103.71696

> <Potential Energy>
103.71696

> <RMS Gradient>
0.01459

> <Bond Energy>
8.03171

> <Angle Energy>
9.04976

> <STRBend>
-0.94943

> <Dihedral Energy>
17.65621

> <OOPLane>
0.12584

> <Van der Waals Energy>
68.43832

> <Electrostatic Energy>
1.36455

> <Hydrogen Bond Energy>
0

> <Solvation Free Energy>
0

> <HasGasteigerCharges>
true

> <REMARK99>
REMARK  99  MacroMolecule created from Mol2 file
REMARK  99  CHEMBL2260190
REMARK  99  PROTEIN
REMARK  99  GASTEIGER
REMARK  99
REMARK  99

$$$$
CHEMBL3934455
  SciTegic05292516403D

 51 54  0  0  0  0            999 V2000
   16.1637  -11.1290   -0.0173 C   0  0
   16.5292   -9.7733    0.1166 C   0  0
   17.8020   -9.4201    0.5974 C   0  0
   18.7197  -10.4058    0.9540 C   0  0
   18.3798  -11.7473    0.8245 C   0  0
   17.1170  -12.1035    0.3444 C   0  0
   14.8341  -11.5720   -0.4693 C   0  0
   14.6901  -12.3430   -1.6323 C   0  0
   13.4325  -12.7923   -2.0463 C   0  0
   12.2848  -12.4877   -1.3014 C   0  0
   12.4199  -11.6884   -0.1580 C   0  0
   13.6794  -11.2524    0.2600 C   0  0
   15.6035   -8.6759   -0.2714 C   0  0
   14.9791   -8.6733   -1.3224 O   0  0
   15.4712   -7.6579    0.6329 N   0  0
   10.9367  -12.9947   -1.7574 C   0  0
   10.4424  -14.5603    0.1764 C   0  0
   10.1195  -13.5101   -0.6646 N   0  0
    8.8691  -13.0463   -0.3112 C   0  0
    8.5218  -13.8183    0.7930 C   0  0
    9.5093  -14.7189    1.0935 N   0  0
    7.2868  -13.6098    1.4262 C   0  0
    6.4232  -12.6315    0.9208 C   0  0
    6.7852  -11.8711   -0.1913 C   0  0
    8.0197  -12.0568   -0.8281 C   0  0
   11.6988  -15.3699    0.0674 C   0  0
   11.5538  -16.7536    0.7047 C   0  0
   12.8284  -17.5697    0.5558 C   0  0
   18.0867   -8.3750    0.6750 H   0  0
   19.7005  -10.1296    1.3276 H   0  0
   19.0942  -12.5200    1.0993 H   0  0
   16.8698  -13.1614    0.2659 H   0  0
   15.5643  -12.5895   -2.2327 H   0  0
   13.3625  -13.3853   -2.9557 H   0  0
   11.5493  -11.4100    0.4338 H   0  0
   13.7506  -10.6539    1.1657 H   0  0
   15.9299   -7.6480    1.5325 H   0  0
   14.8699   -6.8841    0.3820 H   0  0
   10.4013  -12.1816   -2.2565 H   0  0
   11.0382  -13.8175   -2.4749 H   0  0
    7.0145  -14.2115    2.2857 H   0  0
    5.4590  -12.4692    1.3974 H   0  0
    6.0930  -11.1222   -0.5724 H   0  0
    8.2883  -11.4568   -1.6906 H   0  0
   11.9708  -15.4976   -0.9865 H   0  0
   12.5142  -14.8276    0.5599 H   0  0
   11.3151  -16.6565    1.7708 H   0  0
   10.7220  -17.2965    0.2395 H   0  0
   12.7049  -18.5533    1.0196 H   0  0
   13.6732  -17.0693    1.0398 H   0  0
   13.0766  -17.7206   -0.4996 H   0  0
  1  2  1  0
  1  6  2  0
  1  7  1  0
  2  3  2  0
  2 13  1  0
  3  4  1  0
  3 29  1  0
  4  5  2  0
  4 30  1  0
  5  6  1  0
  5 31  1  0
  6 32  1  0
  7  8  1  0
  7 12  2  0
  8  9  2  0
  8 33  1  0
  9 10  1  0
  9 34  1  0
 10 11  2  0
 10 16  1  0
 11 12  1  0
 11 35  1  0
 12 36  1  0
 13 14  2  0
 13 15  1  0
 15 37  1  0
 15 38  1  0
 16 18  1  0
 16 39  1  0
 16 40  1  0
 17 18  1  0
 17 21  2  0
 17 26  1  0
 18 19  1  0
 19 20  1  0
 19 25  2  0
 20 21  1  0
 20 22  2  0
 22 23  1  0
 22 41  1  0
 23 24  2  0
 23 42  1  0
 24 25  1  0
 24 43  1  0
 25 44  1  0
 26 27  1  0
 26 45  1  0
 26 46  1  0
 27 28  1  0
 27 47  1  0
 27 48  1  0
 28 49  1  0
 28 50  1  0
 28 51  1  0
M  END
> <Name>
CHEMBL3934455

> <Clean Energy>
49.5956

> <chembl_id>
CHEMBL3934455

> <chembl_pref_name>
None

> <efficacy>
0.287749288

> <Forcefield>
MMFF

> <ForcefieldBase>
MMFF

> <ForcefieldFFML>
<?xml version="1.0" encoding="UTF-8"?>
<!DOCTYPE ffml SYSTEM "Ffml.dtd">
<ffml version="1.0">
<forcefield name="MMFF" derivedFrom="MMFF" base="MMFF">
<atomTypes>
<atomType
name="C100"
element="C"
mass="12.011"
annotation=""/>
<atomType
name="O101"
element="O"
mass="16"
annotation=""/>
<atomType
name="N102"
element="N"
mass="14.007"
annotation=""/>
<atomType
name="H103"
element="H"
mass="1.008"
annotation=""/>
</atomTypes>
<parameters>
</parameters>
</forcefield>
</ffml>

> <Initial Potential Energy>
246.4174

> <Initial RMS Gradient>
41.10816

> <Minimization Criteria>
CONJUG> Minimization exiting with gradient tolerance ( 0.0100000) satisfied.

> <CHARMm Energy>
61.57532

> <Potential Energy>
61.57532

> <RMS Gradient>
0.0081

> <Bond Energy>
6.73632

> <Angle Energy>
6.5522

> <STRBend>
-0.23915

> <Dihedral Energy>
7.42054

> <OOPLane>
0.03034

> <Van der Waals Energy>
53.6865

> <Electrostatic Energy>
-12.61144

> <Hydrogen Bond Energy>
0

> <Solvation Free Energy>
0

> <HasGasteigerCharges>
true

> <REMARK99>
REMARK  99  MacroMolecule created from Mol2 file
REMARK  99  CHEMBL3934455
REMARK  99  PROTEIN
REMARK  99  GASTEIGER
REMARK  99
REMARK  99

$$$$
CHEMBL1080365
  SciTegic05292516403D

 64 67  0  0  0  0            999 V2000
   -9.6155  -13.5436    0.6283 C   0  0
   -9.3921  -14.9245    0.6547 C   0  0
   -8.0845  -15.4243    0.6195 C   0  0
   -7.0094  -14.5381    0.5584 C   0  0
   -7.2318  -13.1594    0.5792 C   0  0
   -8.5381  -12.6465    0.6094 C   0  0
   -8.7665  -11.1627    0.6607 C   0  0
  -10.8896  -13.0380    0.7173 O   0  0
  -11.6516  -13.3253   -0.4505 C   0  0
  -13.0098  -12.6237   -0.4997 C   0  0
  -13.6375  -12.8066   -1.7001 O   0  0
  -13.5426  -11.9814    0.3936 O   0  0
   -5.7122  -14.9819    0.5890 O   0  0
   -5.3711  -15.7186   -0.5947 C   0  0
   -3.9786  -16.2242   -0.4350 C   0  0
   -3.8310  -17.5854   -0.3919 O   0  0
   -2.4797  -17.7946   -0.3105 C   0  0
   -1.8666  -16.5561   -0.2748 C   0  0
   -2.8322  -15.5693   -0.3908 N   0  0
   -0.4599  -16.2413   -0.1497 C   0  0
    0.5228  -17.1409    0.2117 C   0  0
    1.3036  -14.5781   -0.2806 N   0  0
    0.0061  -14.9558   -0.3704 C   0  0
   -2.0992  -19.1916   -0.3195 C   0  0
   -2.5661  -20.0508    0.6814 C   0  0
   -2.2383  -21.4101    0.6676 C   0  0
   -1.4415  -21.9270   -0.3529 C   0  0
   -0.9733  -21.0694   -1.3530 C   0  0
   -1.2985  -19.7108   -1.3407 C   0  0
   -1.0546  -23.2269   -0.4972 O   0  0
   -1.4873  -24.1496    0.4852 C   0  0
   -0.9854  -25.3669    0.1782 F   0  0
   -1.0361  -23.8113    1.7119 F   0  0
   -2.8344  -24.2594    0.5089 F   0  0
    2.1612  -15.5602    0.0429 C   0  0
    1.8344  -16.8370    0.3003 N   0  0
    3.4862  -15.1848    0.0815 O   0  0
    4.4063  -16.2512    0.3495 C   0  0
    5.6676  -15.5989    0.9141 C   0  0
    4.7462  -16.9975   -0.9397 C   0  0
  -10.2213  -15.6199    0.7456 H   0  0
   -7.9131  -16.4961    0.6844 H   0  0
   -6.3805  -12.4820    0.5867 H   0  0
   -9.4505  -10.8537   -0.1364 H   0  0
   -7.8322  -10.6086    0.5224 H   0  0
   -9.1880  -10.8798    1.6305 H   0  0
  -11.0908  -13.0017   -1.3372 H   0  0
  -11.8559  -14.4011   -0.5070 H   0  0
  -13.0839  -13.3187   -2.3242 H   0  0
   -6.0522  -16.5630   -0.7499 H   0  0
   -5.4164  -15.0556   -1.4671 H   0  0
    0.3084  -18.1734    0.4648 H   0  0
   -0.6754  -14.1534   -0.6411 H   0  0
   -3.1946  -19.6685    1.4841 H   0  0
   -2.6327  -22.0277    1.4699 H   0  0
   -0.3558  -21.4617   -2.1583 H   0  0
   -0.9323  -19.0740   -2.1436 H   0  0
    4.0316  -16.9399    1.1171 H   0  0
    6.4326  -16.3461    1.1469 H   0  0
    5.4318  -15.0450    1.8294 H   0  0
    6.0869  -14.8743    0.2072 H   0  0
    5.5098  -17.7616   -0.7637 H   0  0
    5.1120  -16.3058   -1.7066 H   0  0
    3.8632  -17.4897   -1.3593 H   0  0
  1  2  2  0
  1  8  1  0
  2  3  1  0
  2 41  1  0
  3  4  2  0
  3 42  1  0
  4  5  1  0
  4 13  1  0
  5  6  2  0
  5 43  1  0
  6  1  1  0
  6  7  1  0
  7 44  1  0
  7 45  1  0
  7 46  1  0
  8  9  1  0
  9 10  1  0
  9 47  1  0
  9 48  1  0
 10 11  1  0
 10 12  2  0
 11 49  1  0
 13 14  1  0
 14 15  1  0
 14 50  1  0
 14 51  1  0
 15 16  1  0
 16 17  1  0
 17 18  2  0
 17 24  1  0
 18 19  1  0
 18 20  1  0
 19 15  2  0
 20 21  2  0
 21 36  1  0
 21 52  1  0
 22 23  2  0
 23 20  1  0
 23 53  1  0
 24 25  2  0
 25 26  1  0
 25 54  1  0
 26 27  2  0
 26 55  1  0
 27 28  1  0
 27 30  1  0
 28 29  2  0
 28 56  1  0
 29 24  1  0
 29 57  1  0
 30 31  1  0
 31 32  1  0
 31 33  1  0
 31 34  1  0
 35 22  1  0
 35 36  2  0
 35 37  1  0
 37 38  1  0
 38 39  1  0
 38 40  1  0
 38 58  1  0
 39 59  1  0
 39 60  1  0
 39 61  1  0
 40 62  1  0
 40 63  1  0
 40 64  1  0
M  END
> <Name>
CHEMBL1080365

> <Clean Energy>
48.824501

> <chembl_id>
CHEMBL1080365

> <chembl_pref_name>
None

> <efficacy>
0.24

> <Forcefield>
MMFF

> <ForcefieldBase>
MMFF

> <ForcefieldFFML>
<?xml version="1.0" encoding="UTF-8"?>
<!DOCTYPE ffml SYSTEM "Ffml.dtd">
<ffml version="1.0">
<forcefield name="MMFF" derivedFrom="MMFF" base="MMFF">
<atomTypes>
<atomType
name="C100"
element="C"
mass="12.011"
annotation=""/>
<atomType
name="O101"
element="O"
mass="16"
annotation=""/>
<atomType
name="N102"
element="N"
mass="14.007"
annotation=""/>
<atomType
name="F103"
element="F"
mass="18.998"
annotation=""/>
<atomType
name="H104"
element="H"
mass="1.008"
annotation=""/>
</atomTypes>
<parameters>
</parameters>
</forcefield>
</ffml>

> <Initial Potential Energy>
227.02231

> <Initial RMS Gradient>
33.61523

> <Minimization Criteria>
STEEPD> Minimization exiting with gradient tolerance ( 3.0000000) satisfied.

> <CHARMm Energy>
66.99208

> <Potential Energy>
66.99208

> <RMS Gradient>
0.05513

> <Bond Energy>
4.90113

> <Angle Energy>
24.04633

> <STRBend>
0.36963

> <Dihedral Energy>
14.61528

> <OOPLane>
0.1984

> <Van der Waals Energy>
68.89741

> <Electrostatic Energy>
-46.03611

> <Hydrogen Bond Energy>
0

> <Solvation Free Energy>
0

> <HasGasteigerCharges>
true

> <REMARK99>
REMARK  99  MacroMolecule created from Mol2 file
REMARK  99  CHEMBL1080365
REMARK  99  PROTEIN
REMARK  99  GASTEIGER
REMARK  99
REMARK  99

$$$$
CHEMBL3753819
  SciTegic05292516403D

 48 49  0  0  0  0            999 V2000
    5.5046   -5.7781   -1.0275 C   0  0
    4.7914   -5.6350    0.3328 C   0  0
    5.7767   -4.9738    1.3110 C   0  0
    3.4793   -4.8324    0.1839 C   0  0
    3.6428   -3.3762   -0.2530 C   0  0
    2.2811   -2.7145   -0.4443 C   0  0
    2.4976   -1.3324   -0.7558 O   0  0
    1.3029   -0.6647   -0.7074 C   0  0
    0.8618   -0.0505    0.4675 C   0  0
   -0.3772    0.5859    0.4894 C   0  0
   -1.1685    0.6269   -0.6664 C   0  0
   -0.6991    0.0457   -1.8493 C   0  0
    0.5404   -0.5941   -1.8731 C   0  0
   -2.4874    1.2583   -0.6320 C   0  0
   -3.4736    0.7297    0.1095 C   0  0
   -4.8074    1.3314    0.2157 C   0  0
    4.3995   -7.0410    0.8078 C   0  0
    4.2897   -8.0074    0.0663 O   0  0
    4.1248   -7.1477    2.1270 O   0  0
   -5.9363    0.5036    0.2149 C   0  0
   -7.2146    1.0480    0.3555 C   0  0
   -7.3746    2.4234    0.5087 C   0  0
   -6.2574    3.2556    0.5223 C   0  0
   -4.9795    2.7121    0.3814 C   0  0
    1.8009   -0.0835    1.9148 Cl  0  0
    6.3562   -6.4652   -0.9537 H   0  0
    5.8893   -4.8198   -1.3913 H   0  0
    4.8291   -6.1779   -1.7927 H   0  0
    5.2836   -4.6520    2.2344 H   0  0
    6.2447   -4.0854    0.8724 H   0  0
    6.5789   -5.6669    1.5895 H   0  0
    2.8253   -5.3483   -0.5330 H   0  0
    2.9363   -4.8474    1.1388 H   0  0
    4.2143   -2.8112    0.4926 H   0  0
    4.2040   -3.3022   -1.1908 H   0  0
    1.7463   -3.1992   -1.2709 H   0  0
    1.6888   -2.8235    0.4735 H   0  0
   -0.7306    1.0405    1.4109 H   0  0
   -1.3016    0.0651   -2.7535 H   0  0
    0.9029   -1.0499   -2.7907 H   0  0
   -2.6283    2.1550   -1.2332 H   0  0
   -3.3180   -0.1946    0.6649 H   0  0
    4.1364   -6.3080    2.6207 H   0  0
   -5.8340   -0.5720    0.0968 H   0  0
   -8.0844    0.3968    0.3477 H   0  0
   -8.3685    2.8463    0.6230 H   0  0
   -6.3787    4.3281    0.6496 H   0  0
   -4.1201    3.3774    0.4162 H   0  0
  1 26  1  0
  1 27  1  0
  1 28  1  0
  2  1  1  0
  2  4  1  0
  2 17  1  0
  3  2  1  0
  3 29  1  0
  3 30  1  0
  3 31  1  0
  4  5  1  0
  4 32  1  0
  4 33  1  0
  5  6  1  0
  5 34  1  0
  5 35  1  0
  6  7  1  0
  6 36  1  0
  6 37  1  0
  7  8  1  0
  8  9  1  0
  8 13  2  0
  9 10  2  0
  9 25  1  0
 10 11  1  0
 10 38  1  0
 11 12  2  0
 11 14  1  0
 12 13  1  0
 12 39  1  0
 13 40  1  0
 14 15  2  0
 14 41  1  0
 15 16  1  0
 15 42  1  0
 16 20  2  0
 17 18  2  0
 17 19  1  0
 19 43  1  0
 20 21  1  0
 20 44  1  0
 21 22  2  0
 21 45  1  0
 22 23  1  0
 22 46  1  0
 23 24  2  0
 23 47  1  0
 24 16  1  0
 24 48  1  0
M  END
> <Name>
CHEMBL3753819

> <Clean Energy>
10.0754

> <chembl_id>
CHEMBL3753819

> <chembl_pref_name>
None

> <efficacy>
0.44

> <Forcefield>
MMFF

> <ForcefieldBase>
MMFF

> <ForcefieldFFML>
<?xml version="1.0" encoding="UTF-8"?>
<!DOCTYPE ffml SYSTEM "Ffml.dtd">
<ffml version="1.0">
<forcefield name="MMFF" derivedFrom="MMFF" base="MMFF">
<atomTypes>
<atomType
name="C100"
element="C"
mass="12.011"
annotation=""/>
<atomType
name="O101"
element="O"
mass="16"
annotation=""/>
<atomType
name="Cl102"
element="Cl"
mass="35.453"
annotation=""/>
<atomType
name="H103"
element="H"
mass="1.008"
annotation=""/>
</atomTypes>
<parameters>
</parameters>
</forcefield>
</ffml>

> <Initial Potential Energy>
100.48823

> <Initial RMS Gradient>
25.53684

> <Minimization Criteria>
CONJUG> Minimization exiting with gradient tolerance ( 0.0100000) satisfied.

> <CHARMm Energy>
47.866

> <Potential Energy>
47.866

> <RMS Gradient>
0.00702

> <Bond Energy>
4.616

> <Angle Energy>
5.57838

> <STRBend>
0.5965

> <Dihedral Energy>
14.11067

> <OOPLane>
0.06452

> <Van der Waals Energy>
49.57112

> <Electrostatic Energy>
-26.67119

> <Hydrogen Bond Energy>
0

> <Solvation Free Energy>
0

> <HasGasteigerCharges>
true

> <REMARK99>
REMARK  99  MacroMolecule created from Mol2 file
REMARK  99  CHEMBL3753819
REMARK  99  PROTEIN
REMARK  99  GASTEIGER
REMARK  99
REMARK  99

$$$$
CHEMBL1801739
  SciTegic05292516403D

 64 69  0  0  0  0            999 V2000
   -8.6467  -18.4239   -0.8106 C   0  0
   -8.4270  -17.0957   -0.3855 C   0  0
   -7.5666  -19.3662   -1.0545 C   0  0
   -7.0887  -16.5055   -0.1887 C   0  0
   -6.5515  -15.6242   -1.1560 C   0  0
   -6.3464  -16.7591    0.9759 C   0  0
   -5.3161  -14.9873   -0.9716 C   0  0
   -9.9621  -18.8881   -1.0142 C   0  0
   -9.5557  -16.2827   -0.1549 C   0  0
  -11.0616  -18.0641   -0.7818 C   0  0
  -10.8559  -16.7609   -0.3466 C   0  0
   -4.6198  -15.2197    0.2022 C   0  0
   -5.1231  -16.1199    1.1525 C   0  0
   -4.1561  -16.3086    2.2809 C   0  0
   -3.2401  -15.0871    2.1276 C   0  0
   -3.2740  -14.6903    0.6354 C   0  0  2  0  0  0
   -3.0327  -13.2691    0.4188 N   0  0
   -3.1747  -11.0393    0.4573 N   0  0
   -1.8414  -12.7881   -0.0852 C   0  0
   -3.8053  -12.1663    0.7566 C   0  0
   -1.9608  -11.4079   -0.0556 C   0  0
    0.2476  -12.7412   -0.9470 C   0  0
   -0.7802  -13.5079   -0.5024 N   0  0
   -0.8820  -10.6294   -0.5078 C   0  0
    0.2438  -11.3408   -0.9575 C   0  0
   -5.1669  -12.2014    1.3994 C   0  0
   -0.8877   -9.1325   -0.5212 C   0  0
   -6.2168  -11.6128    0.4553 C   0  0
   -7.0841  -20.2278   -0.1088 N   0  0
   -6.1747  -21.0512   -0.6484 N   0  0
   -6.0966  -20.6843   -1.9200 N   0  0
   -6.9690  -19.6555   -2.1927 N   0  0
    1.4689  -13.4861   -1.4317 C   0  0
    2.4052  -13.8260   -0.2835 C   0  0
   -5.1491  -11.4287    2.7212 C   0  0
   -7.1072  -15.4302   -2.0730 H   0  0
   -6.7252  -17.4335    1.7387 H   0  0
   -4.9239  -14.3235   -1.7376 H   0  0
  -10.1229  -19.9007   -1.3756 H   0  0
   -9.4254  -15.2528    0.1751 H   0  0
  -12.0695  -18.4315   -0.9513 H   0  0
  -11.7020  -16.1028   -0.1682 H   0  0
   -4.6510  -16.3151    3.2562 H   0  0
   -3.5970  -17.2395    2.1408 H   0  0
   -3.6186  -14.2770    2.7641 H   0  0
   -2.2210  -15.2953    2.4718 H   0  0
   -2.5129  -15.2608    0.0887 H   0  0
    1.1155  -10.7974   -1.3162 H   0  0
   -5.4670  -13.2229    1.6370 H   0  0
   -0.0900   -8.7470    0.1215 H   0  0
   -1.8395   -8.7329   -0.1574 H   0  0
   -0.7348   -8.7646   -1.5408 H   0  0
   -7.2163  -11.6817    0.8978 H   0  0
   -6.2356  -12.1478   -0.4999 H   0  0
   -6.0176  -10.5574    0.2373 H   0  0
   -7.3467  -20.3304    0.8625 H   0  0
    1.1485  -14.4094   -1.9292 H   0  0
    1.9989  -12.8938   -2.1868 H   0  0
    3.2774  -14.3728   -0.6552 H   0  0
    1.9056  -14.4517    0.4640 H   0  0
    2.7603  -12.9204    0.2199 H   0  0
   -6.1276  -11.4773    3.2110 H   0  0
   -4.9004  -10.3720    2.5709 H   0  0
   -4.4078  -11.8492    3.4100 H   0  0
  1  2  1  0
  2  4  1  0
  3  1  1  0
  3 29  1  0
  4  5  2  0
  5  7  1  0
  5 36  1  0
  6  4  1  0
  6 13  2  0
  6 37  1  0
  7 12  2  0
  7 38  1  0
  8  1  2  0
  8 10  1  0
  8 39  1  0
  9  2  2  0
  9 40  1  0
 10 11  2  0
 10 41  1  0
 11  9  1  0
 11 42  1  0
 12 13  1  0
 13 14  1  0
 14 15  1  0
 14 43  1  0
 14 44  1  0
 15 16  1  0
 15 45  1  0
 15 46  1  0
 16 12  1  0
 16 17  1  0
 16 47  1  0
 17 19  1  0
 18 20  2  0
 18 21  1  0
 19 21  2  0
 19 23  1  0
 20 17  1  0
 21 24  1  0
 22 33  1  0
 23 22  2  0
 24 25  2  0
 25 22  1  0
 25 48  1  0
 26 20  1  0
 26 35  1  0
 26 49  1  0
 27 24  1  0
 27 50  1  0
 27 51  1  0
 27 52  1  0
 28 26  1  0
 28 53  1  0
 28 54  1  0
 28 55  1  0
 29 30  1  0
 29 56  1  0
 30 31  2  0
 31 32  1  0
 32  3  2  0
 33 34  1  0
 33 57  1  0
 33 58  1  0
 34 59  1  0
 34 60  1  0
 34 61  1  0
 35 62  1  0
 35 63  1  0
 35 64  1  0
M  END
> <Name>
CHEMBL1801739

> <Clean Energy>
101.714996

> <chembl_id>
CHEMBL1801739

> <chembl_pref_name>
None

> <efficacy>
0.25

> <Forcefield>
MMFF

> <ForcefieldBase>
MMFF

> <ForcefieldFFML>
<?xml version="1.0" encoding="UTF-8"?>
<!DOCTYPE ffml SYSTEM "Ffml.dtd">
<ffml version="1.0">
<forcefield name="MMFF" derivedFrom="MMFF" base="MMFF">
<atomTypes>
<atomType
name="C100"
element="C"
mass="12.011"
annotation=""/>
<atomType
name="N101"
element="N"
mass="14.007"
annotation=""/>
<atomType
name="H102"
element="H"
mass="1.008"
annotation=""/>
</atomTypes>
<parameters>
</parameters>
</forcefield>
</ffml>

> <Initial Potential Energy>
239.65409

> <Initial RMS Gradient>
35.85672

> <Minimization Criteria>
STEEPD> Minimization exiting with gradient tolerance ( 3.0000000) satisfied.

> <CHARMm Energy>
95.01664

> <Potential Energy>
95.01664

> <RMS Gradient>
0.08589

> <Bond Energy>
8.14732

> <Angle Energy>
15.11838

> <STRBend>
-0.69516

> <Dihedral Energy>
10.1695

> <OOPLane>
0.19261

> <Van der Waals Energy>
54.37974

> <Electrostatic Energy>
7.70425

> <Hydrogen Bond Energy>
0

> <Solvation Free Energy>
0

> <HasGasteigerCharges>
true

> <REMARK99>
REMARK  99  MacroMolecule created from Mol2 file
REMARK  99  CHEMBL1801739
REMARK  99  PROTEIN
REMARK  99  GASTEIGER
REMARK  99
REMARK  99

$$$$
CHEMBL167378
  SciTegic05292516403D

 59 62  0  0  0  0            999 V2000
   -1.3507   -5.6742   -0.3919 N   0  0
   -1.0401   -4.4535   -0.0528 C   0  0
   -2.0171   -3.3846    0.3152 C   0  0
   -3.4227   -3.9126   -2.0410 S   0  0
   -3.0561   -3.0105   -0.5460 C   0  0
   -2.6774   -6.1334   -0.4968 C   0  0
   -3.6804   -5.5062   -1.2632 C   0  0
   10.2477   -0.7955   -0.9622 C   0  0
    8.8431   -1.2970   -0.6340 C   0  0  2  0  0  0
    0.3085   -4.1626   -0.0396 N   0  0
   10.5206    0.1174   -1.7267 O   0  0
    8.0914   -0.2031    0.1245 C   0  0
    6.6056   -0.4666    0.1566 C   0  0
   11.1992   -1.4916   -0.2816 O   0  0
    3.8682   -1.0263    0.1562 C   0  0
   -1.8170   -2.7015    1.5246 C   0  0
    9.0407   -2.4453    0.2298 O   0  0
    6.0403   -1.2369    1.1813 C   0  0
    5.7823    0.0380   -0.8578 C   0  0
    4.6728   -1.5111    1.1853 C   0  0
    4.4169   -0.2326   -0.8490 C   0  0
   -3.8605   -1.9172   -0.2028 C   0  0
    2.5246   -1.2422    0.0658 O   0  0
   -2.9730   -7.3525    0.1261 C   0  0
   -4.9459   -6.0977   -1.3824 C   0  0
    0.8883   -2.8839   -0.4125 C   0  0
    8.5132   -3.6409   -0.3512 C   0  0
    2.1007   -2.5525    0.4460 C   0  0
   -2.6359   -1.6259    1.8634 C   0  0
   -3.6491   -1.2272    0.9941 C   0  0
    8.7288   -4.7792    0.6254 C   0  0
   -4.2361   -7.9333    0.0136 C   0  0
   -5.2206   -7.3056   -0.7427 C   0  0
    8.3587   -1.5799   -1.5769 H   0  0
    0.9100   -4.9603   -0.2295 H   0  0
    8.4631   -0.1238    1.1546 H   0  0
    8.2623    0.7793   -0.3345 H   0  0
   10.7083   -2.1529    0.2684 H   0  0
   -1.0224   -3.0094    2.1992 H   0  0
    6.6658   -1.6268    1.9818 H   0  0
    6.1988    0.6475   -1.6577 H   0  0
    4.2522   -2.0936    1.9991 H   0  0
    3.7779    0.1603   -1.6355 H   0  0
   -4.6672   -1.6012   -0.8599 H   0  0
   -2.1977   -7.8534    0.7000 H   0  0
   -5.7287   -5.6183   -1.9657 H   0  0
    1.1864   -2.9235   -1.4673 H   0  0
    0.1665   -2.0625   -0.3490 H   0  0
    7.4431   -3.5179   -0.5496 H   0  0
    9.0348   -3.8510   -1.2913 H   0  0
    2.8774   -3.3096    0.2756 H   0  0
    1.8320   -2.5474    1.5087 H   0  0
   -2.4885   -1.0985    2.8027 H   0  0
   -4.2864   -0.3847    1.2527 H   0  0
    8.3459   -5.7197    0.2195 H   0  0
    8.2243   -4.5725    1.5750 H   0  0
    9.7941   -4.8983    0.8499 H   0  0
   -4.4442   -8.8782    0.5078 H   0  0
   -6.2044   -7.7552   -0.8358 H   0  0
  2  1  2  0
  3  2  1  0
  4  7  1  0
  5  3  2  0
  5  4  1  0
  6  1  1  0
  7  6  2  0
  8  9  1  0
  9 12  1  0
  9 34  1  0
 10  2  1  0
 10 35  1  0
 11  8  2  0
 12 13  1  0
 12 36  1  0
 12 37  1  0
 13 19  2  0
 14  8  1  0
 14 38  1  0
 15 23  1  0
 16  3  1  0
 16 39  1  0
 17  9  1  0
 18 13  1  0
 18 20  2  0
 18 40  1  0
 19 21  1  0
 19 41  1  0
 20 15  1  0
 20 42  1  0
 21 15  2  0
 21 43  1  0
 22  5  1  0
 22 44  1  0
 23 28  1  0
 24  6  1  0
 24 45  1  0
 25  7  1  0
 25 33  2  0
 25 46  1  0
 26 10  1  0
 26 47  1  0
 26 48  1  0
 27 17  1  0
 27 49  1  0
 27 50  1  0
 28 26  1  0
 28 51  1  0
 28 52  1  0
 29 16  2  0
 29 53  1  0
 30 22  2  0
 30 29  1  0
 30 54  1  0
 31 27  1  0
 31 55  1  0
 31 56  1  0
 31 57  1  0
 32 24  2  0
 32 58  1  0
 33 32  1  0
 33 59  1  0
M  END
> <Name>
CHEMBL167378

> <Clean Energy>
50.275299

> <chembl_id>
CHEMBL167378

> <chembl_pref_name>
None

> <efficacy>
0.413

> <Forcefield>
MMFF

> <ForcefieldBase>
MMFF

> <ForcefieldFFML>
<?xml version="1.0" encoding="UTF-8"?>
<!DOCTYPE ffml SYSTEM "Ffml.dtd">
<ffml version="1.0">
<forcefield name="MMFF" derivedFrom="MMFF" base="MMFF">
<atomTypes>
<atomType
name="N100"
element="N"
mass="14.007"
annotation=""/>
<atomType
name="C101"
element="C"
mass="12.011"
annotation=""/>
<atomType
name="S102"
element="S"
mass="32.066"
annotation=""/>
<atomType
name="O103"
element="O"
mass="16"
annotation=""/>
<atomType
name="H104"
element="H"
mass="1.008"
annotation=""/>
</atomTypes>
<parameters>
</parameters>
</forcefield>
</ffml>

> <Initial Potential Energy>
266.58768

> <Initial RMS Gradient>
31.27621

> <Minimization Criteria>
STEEPD> Minimization exiting with gradient tolerance ( 3.0000000) satisfied.

> <CHARMm Energy>
96.04928

> <Potential Energy>
96.04928

> <RMS Gradient>
0.05134

> <Bond Energy>
6.32515

> <Angle Energy>
17.59854

> <STRBend>
0.45121

> <Dihedral Energy>
19.62506

> <OOPLane>
1.40626

> <Van der Waals Energy>
68.09205

> <Electrostatic Energy>
-17.449

> <Hydrogen Bond Energy>
0

> <Solvation Free Energy>
0

> <HasGasteigerCharges>
true

> <REMARK99>
REMARK  99  MacroMolecule created from Mol2 file
REMARK  99  CHEMBL167378
REMARK  99  PROTEIN
REMARK  99  GASTEIGER
REMARK  99
REMARK  99

$$$$
CHEMBL2312705
  SciTegic05292516403D

 57 59  0  0  0  0            999 V2000
   23.5207  -17.2121   -1.1641 C   0  0
   23.5600  -18.5911   -1.3394 C   0  0
   24.7622  -19.2721   -1.1540 C   0  0
   25.9449  -18.5819   -0.7980 C   0  0
   25.9121  -17.1775   -0.6165 C   0  0
   24.6830  -16.5159   -0.8077 C   0  0
   27.0978  -16.3845   -0.2277 C   0  0
   28.0266  -15.9404   -1.1815 C   0  0
   29.1572  -15.1872   -0.8126 C   0  0
   29.3880  -14.8706    0.5242 C   0  0
   28.4530  -15.2823    1.4780 C   0  0
   27.3248  -16.0314    1.1093 C   0  0
   30.4428  -14.1503    1.0202 O   0  0
   31.6865  -14.1238    0.2840 C   0  0  1  0  0  0
   32.5103  -12.9365    0.8157 C   0  0
   31.8632  -12.2002    1.7533 O   0  0
   33.6417  -12.6522    0.4426 O   0  0
   32.5006  -15.4083    0.5280 C   0  0
   32.3464  -16.4260   -0.5803 C   0  0
   31.5804  -17.5839   -0.3933 C   0  0
   31.4336  -18.5083   -1.4289 C   0  0
   32.0557  -18.2888   -2.6564 C   0  0
   32.8277  -17.1455   -2.8497 C   0  0
   32.9731  -16.2179   -1.8174 C   0  0
   27.2055  -19.3948   -0.5829 C   0  0
   27.3226  -19.8914    0.8605 C   0  0
   28.6245  -20.6641    1.0767 C   0  0
   28.7430  -21.1640    2.5160 C   0  0
   30.0419  -21.9230    2.7354 C   0  0
   22.5866  -16.6721   -1.2992 H   0  0
   22.6566  -19.1376   -1.6135 H   0  0
   24.7759  -20.3534   -1.2836 H   0  0
   24.6263  -15.4364   -0.6754 H   0  0
   27.8777  -16.1853   -2.2322 H   0  0
   29.8300  -14.8754   -1.6045 H   0  0
   28.6010  -15.0333    2.5261 H   0  0
   26.6223  -16.3461    1.8789 H   0  0
   31.5116  -13.8920   -0.7720 H   0  0
   30.9725  -12.5763    1.9216 H   0  0
   33.5744  -15.1985    0.6163 H   0  0
   32.2087  -15.8628    1.4837 H   0  0
   31.0822  -17.7701    0.5559 H   0  0
   30.8338  -19.4017   -1.2777 H   0  0
   31.9443  -19.0123   -3.4596 H   0  0
   33.3273  -16.9798   -3.8014 H   0  0
   33.5909  -15.3363   -1.9817 H   0  0
   27.2010  -20.2516   -1.2695 H   0  0
   28.0903  -18.8123   -0.8612 H   0  0
   27.2827  -19.0453    1.5566 H   0  0
   26.4680  -20.5362    1.1016 H   0  0
   28.6669  -21.5151    0.3862 H   0  0
   29.4775  -20.0158    0.8450 H   0  0
   28.7009  -20.3160    3.2094 H   0  0
   27.8977  -21.8201    2.7536 H   0  0
   30.1071  -22.2714    3.7709 H   0  0
   30.9080  -21.2837    2.5367 H   0  0
   30.1014  -22.7967    2.0785 H   0  0
  1  2  2  0
  1 30  1  0
  2  3  1  0
  2 31  1  0
  3  4  2  0
  3 32  1  0
  4  5  1  0
  4 25  1  0
  5  6  2  0
  5  7  1  0
  6  1  1  0
  6 33  1  0
  7  8  2  0
  8  9  1  0
  8 34  1  0
  9 10  2  0
  9 35  1  0
 10 11  1  0
 10 13  1  0
 11 12  2  0
 11 36  1  0
 12  7  1  0
 12 37  1  0
 13 14  1  0
 14 15  1  0
 14 18  1  0
 14 38  1  0
 15 16  1  0
 15 17  2  0
 16 39  1  0
 18 19  1  0
 18 40  1  0
 18 41  1  0
 19 20  2  0
 20 21  1  0
 20 42  1  0
 21 22  2  0
 21 43  1  0
 22 23  1  0
 22 44  1  0
 23 24  2  0
 23 45  1  0
 24 19  1  0
 24 46  1  0
 25 26  1  0
 25 47  1  0
 25 48  1  0
 26 27  1  0
 26 49  1  0
 26 50  1  0
 27 28  1  0
 27 51  1  0
 27 52  1  0
 28 29  1  0
 28 53  1  0
 28 54  1  0
 29 55  1  0
 29 56  1  0
 29 57  1  0
M  END
> <Name>
CHEMBL2312705

> <Clean Energy>
30.502501

> <chembl_id>
CHEMBL2312705

> <chembl_pref_name>
None

> <efficacy>
0.11

> <Forcefield>
MMFF

> <ForcefieldBase>
MMFF

> <ForcefieldFFML>
<?xml version="1.0" encoding="UTF-8"?>
<!DOCTYPE ffml SYSTEM "Ffml.dtd">
<ffml version="1.0">
<forcefield name="MMFF" derivedFrom="MMFF" base="MMFF">
<atomTypes>
<atomType
name="C100"
element="C"
mass="12.011"
annotation=""/>
<atomType
name="O101"
element="O"
mass="16"
annotation=""/>
<atomType
name="H102"
element="H"
mass="1.008"
annotation=""/>
</atomTypes>
<parameters>
</parameters>
</forcefield>
</ffml>

> <Initial Potential Energy>
172.46166

> <Initial RMS Gradient>
28.62688

> <Minimization Criteria>
CONJUG> Minimization exiting with gradient tolerance ( 0.0100000) satisfied.

> <CHARMm Energy>
71.95814

> <Potential Energy>
71.95814

> <RMS Gradient>
0.00787

> <Bond Energy>
8.17414

> <Angle Energy>
11.6143

> <STRBend>
-0.02062

> <Dihedral Energy>
1.75129

> <OOPLane>
0.01943

> <Van der Waals Energy>
56.10498

> <Electrostatic Energy>
-5.68538

> <Hydrogen Bond Energy>
0

> <Solvation Free Energy>
0

> <HasGasteigerCharges>
true

> <REMARK99>
REMARK  99  MacroMolecule created from Mol2 file
REMARK  99  CHEMBL2312705
REMARK  99  PROTEIN
REMARK  99  GASTEIGER
REMARK  99
REMARK  99

$$$$
CHEMBL2031954
  SciTegic05292516403D

 56 57  0  0  0  0            999 V2000
   11.6568  -25.7341   -0.0986 C   0  0
   11.9096  -26.5402    1.0258 C   0  0
   12.9921  -27.4260    1.0719 C   0  0
   13.8381  -27.5470   -0.0278 C   0  0
   13.5929  -26.7759   -1.1643 C   0  0
   12.5281  -25.8743   -1.1889 C   0  0
   12.3613  -25.1016   -2.3066 O   0  0
   11.1332  -26.5053    2.1517 O   0  0
   15.0099  -28.4232   -0.0368 C   0  0
   16.1327  -28.0722    0.6085 C   0  0
   17.4173  -28.7600    0.4227 C   0  0
   17.5237  -30.1493    0.2631 C   0  0
   18.7649  -30.7387    0.0109 C   0  0
   19.9015  -29.9341   -0.0708 C   0  0
   19.8238  -28.5562    0.1309 C   0  0
   18.5814  -27.9747    0.3821 C   0  0
   10.5211  -24.7285   -0.1339 C   0  0
    9.1673  -25.3803   -0.2605 C   0  0
    8.0597  -25.1775    0.4837 C   0  0
    6.7997  -25.9767    0.1943 C   0  0
    7.9453  -24.2117    1.6329 C   0  0
    5.7451  -25.1671   -0.5684 C   0  0
    4.5634  -26.0276   -0.9265 C   0  0
    3.3219  -25.9919   -0.4057 C   0  0
    2.2530  -26.9270   -0.9108 C   0  0
    2.8609  -25.0724    0.6930 C   0  0
   21.2061  -30.5202   -0.3951 C   0  0
   21.3709  -31.7174   -0.5970 O   0  0
   13.1656  -28.0154    1.9690 H   0  0
   14.2515  -26.8713   -2.0228 H   0  0
   13.1371  -25.2462   -2.8801 H   0  0
   10.2807  -26.0838    1.9410 H   0  0
   14.9573  -29.2785   -0.7039 H   0  0
   16.1582  -27.1687    1.2155 H   0  0
   16.6439  -30.7853    0.3178 H   0  0
   18.8471  -31.8155   -0.1342 H   0  0
   20.7143  -27.9328    0.0775 H   0  0
   18.5212  -26.8957    0.5127 H   0  0
   10.6051  -24.1001    0.7578 H   0  0
   10.6403  -24.0412   -0.9794 H   0  0
    9.1110  -26.0976   -1.0813 H   0  0
    7.0537  -26.8772   -0.3816 H   0  0
    6.3827  -26.3429    1.1417 H   0  0
    8.8682  -23.6654    1.8360 H   0  0
    7.6778  -24.7494    2.5485 H   0  0
    7.1686  -23.4672    1.4320 H   0  0
    5.4451  -24.2867    0.0074 H   0  0
    6.1752  -24.7819   -1.5022 H   0  0
    4.7711  -26.7507   -1.7158 H   0  0
    1.4131  -26.3559   -1.3192 H   0  0
    1.8829  -27.5563   -0.0951 H   0  0
    2.6196  -27.5903   -1.7007 H   0  0
    2.1058  -24.3778    0.3103 H   0  0
    3.6681  -24.4814    1.1314 H   0  0
    2.4141  -25.6533    1.5072 H   0  0
   22.0540  -29.8177   -0.4513 H   0  0
  1  2  2  0
  1 17  1  0
  2  3  1  0
  2  8  1  0
  3  4  2  0
  3 29  1  0
  4  5  1  0
  4  9  1  0
  5  6  2  0
  5 30  1  0
  6  1  1  0
  6  7  1  0
  7 31  1  0
  8 32  1  0
  9 10  2  0
  9 33  1  0
 10 11  1  0
 10 34  1  0
 11 12  2  0
 12 13  1  0
 12 35  1  0
 13 14  2  0
 13 36  1  0
 14 15  1  0
 14 27  1  0
 15 16  2  0
 15 37  1  0
 16 11  1  0
 16 38  1  0
 17 18  1  0
 17 39  1  0
 17 40  1  0
 18 19  2  0
 18 41  1  0
 19 20  1  0
 19 21  1  0
 20 22  1  0
 20 42  1  0
 20 43  1  0
 21 44  1  0
 21 45  1  0
 21 46  1  0
 22 23  1  0
 22 47  1  0
 22 48  1  0
 23 24  2  0
 23 49  1  0
 24 25  1  0
 24 26  1  0
 25 50  1  0
 25 51  1  0
 25 52  1  0
 26 53  1  0
 26 54  1  0
 26 55  1  0
 27 28  2  0
 27 56  1  0
M  END
> <Name>
CHEMBL2031954

> <Clean Energy>
-0.069905

> <chembl_id>
CHEMBL2031954

> <chembl_pref_name>
None

> <efficacy>
0.225

> <Forcefield>
MMFF

> <ForcefieldBase>
MMFF

> <ForcefieldFFML>
<?xml version="1.0" encoding="UTF-8"?>
<!DOCTYPE ffml SYSTEM "Ffml.dtd">
<ffml version="1.0">
<forcefield name="MMFF" derivedFrom="MMFF" base="MMFF">
<atomTypes>
<atomType
name="C100"
element="C"
mass="12.011"
annotation=""/>
<atomType
name="O101"
element="O"
mass="16"
annotation=""/>
<atomType
name="H102"
element="H"
mass="1.008"
annotation=""/>
</atomTypes>
<parameters>
</parameters>
</forcefield>
</ffml>

> <Initial Potential Energy>
143.49159

> <Initial RMS Gradient>
24.64445

> <Minimization Criteria>
STEEPD> Minimization exiting with gradient tolerance ( 3.0000000) satisfied.

> <CHARMm Energy>
58.19059

> <Potential Energy>
58.19059

> <RMS Gradient>
0.10325

> <Bond Energy>
5.45608

> <Angle Energy>
8.80165

> <STRBend>
0.32649

> <Dihedral Energy>
-2.38145

> <OOPLane>
0.13633

> <Van der Waals Energy>
54.70831

> <Electrostatic Energy>
-8.85681

> <Hydrogen Bond Energy>
0

> <Solvation Free Energy>
0

> <HasGasteigerCharges>
true

> <REMARK99>
REMARK  99  MacroMolecule created from Mol2 file
REMARK  99  CHEMBL2031954
REMARK  99  PROTEIN
REMARK  99  GASTEIGER
REMARK  99
REMARK  99

$$$$
CHEMBL1644308
  SciTegic05292516403D

 51 53  0  0  0  0            999 V2000
   17.9337  -14.3519   -0.0685 C   0  0
   18.2849  -15.0399    1.0961 C   0  0
   19.5930  -15.5239    1.2639 C   0  0
   20.5669  -15.3418    0.2742 C   0  0
   20.2038  -14.6892   -0.9034 C   0  0
   18.8962  -14.1996   -1.0747 C   0  0
   16.5551  -13.7688   -0.2002 C   0  0
   16.4342  -12.3794   -0.8259 C   0  0
   15.5309  -14.4295    0.2696 N   0  0
   14.3248  -13.7205    0.0851 O   0  0
   13.2215  -14.5035    0.5695 C   0  0
   11.9484  -13.7298    0.5203 C   0  0
   11.6970  -12.4454    0.9569 C   0  0
   10.3901  -12.1565    0.6904 O   0  0
    9.8976  -13.2950    0.1076 C   0  0
   10.7847  -14.2651   -0.0043 N   0  0
   12.5007  -11.3878    1.5918 C   0  0
    8.5016  -13.2778   -0.3090 C   0  0
    7.6837  -12.1560   -0.1129 C   0  0
    6.3523  -12.1681   -0.5302 C   0  0
    5.8263  -13.3015   -1.1468 C   0  0
    6.6230  -14.4257   -1.3463 C   0  0
    7.9543  -14.4121   -0.9303 C   0  0
   21.8071  -15.8404    0.5783 O   0  0
   22.8572  -15.6629   -0.3662 C   0  0
   24.1725  -16.2640    0.1419 C   0  0
   25.2063  -16.0783   -0.7216 O   0  0
   24.3098  -16.8572    1.2008 O   0  0
   16.4278  -11.3137    0.2583 C   0  0
   17.5516  -15.1872    1.8865 H   0  0
   19.8594  -16.0427    2.1838 H   0  0
   20.9084  -14.5391   -1.7138 H   0  0
   18.6480  -13.7141   -2.0146 H   0  0
   17.2587  -12.1741   -1.5117 H   0  0
   15.5213  -12.3203   -1.4277 H   0  0
   13.1378  -15.4049   -0.0479 H   0  0
   13.4211  -14.8036    1.6049 H   0  0
   11.8733  -10.7293    2.2004 H   0  0
   12.9969  -10.7796    0.8296 H   0  0
   13.2673  -11.8177    2.2436 H   0  0
    8.0776  -11.2622    0.3658 H   0  0
    5.7246  -11.2943   -0.3737 H   0  0
    4.7908  -13.3099   -1.4724 H   0  0
    6.2057  -15.3088   -1.8245 H   0  0
    8.5756  -15.2922   -1.0926 H   0  0
   22.6045  -16.1754   -1.3012 H   0  0
   23.0278  -14.5931   -0.5313 H   0  0
   24.9543  -15.5919   -1.5291 H   0  0
   16.3089  -10.3204   -0.1852 H   0  0
   17.3659  -11.3261    0.8234 H   0  0
   15.6121  -11.4703    0.9704 H   0  0
  1  2  2  0
  1  7  1  0
  2  3  1  0
  2 30  1  0
  3  4  2  0
  3 31  1  0
  4  5  1  0
  4 24  1  0
  5  6  2  0
  5 32  1  0
  6  1  1  0
  6 33  1  0
  7  8  1  0
  7  9  2  0
  8 29  1  0
  8 34  1  0
  8 35  1  0
  9 10  1  0
 10 11  1  0
 11 12  1  0
 11 36  1  0
 11 37  1  0
 12 13  2  0
 13 14  1  0
 13 17  1  0
 14 15  1  0
 15 16  2  0
 15 18  1  0
 16 12  1  0
 17 38  1  0
 17 39  1  0
 17 40  1  0
 18 19  2  0
 19 20  1  0
 19 41  1  0
 20 21  2  0
 20 42  1  0
 21 22  1  0
 21 43  1  0
 22 23  2  0
 22 44  1  0
 23 18  1  0
 23 45  1  0
 24 25  1  0
 25 26  1  0
 25 46  1  0
 25 47  1  0
 26 27  1  0
 26 28  2  0
 27 48  1  0
 29 49  1  0
 29 50  1  0
 29 51  1  0
M  END
> <Name>
CHEMBL1644308

> <Clean Energy>
27.9298

> <chembl_id>
CHEMBL1644308

> <chembl_pref_name>
None

> <efficacy>
0.447

> <Forcefield>
MMFF

> <ForcefieldBase>
MMFF

> <ForcefieldFFML>
<?xml version="1.0" encoding="UTF-8"?>
<!DOCTYPE ffml SYSTEM "Ffml.dtd">
<ffml version="1.0">
<forcefield name="MMFF" derivedFrom="MMFF" base="MMFF">
<atomTypes>
<atomType
name="C100"
element="C"
mass="12.011"
annotation=""/>
<atomType
name="N101"
element="N"
mass="14.007"
annotation=""/>
<atomType
name="O102"
element="O"
mass="16"
annotation=""/>
<atomType
name="H103"
element="H"
mass="1.008"
annotation=""/>
</atomTypes>
<parameters>
</parameters>
</forcefield>
</ffml>

> <Initial Potential Energy>
186.03168

> <Initial RMS Gradient>
26.42158

> <Minimization Criteria>
STEEPD> Minimization exiting with gradient tolerance ( 3.0000000) satisfied.

> <CHARMm Energy>
115.65745

> <Potential Energy>
115.65745

> <RMS Gradient>
0.02977

> <Bond Energy>
5.38735

> <Angle Energy>
12.9882

> <STRBend>
0.84328

> <Dihedral Energy>
-2.10788

> <OOPLane>
0.06965

> <Van der Waals Energy>
44.29874

> <Electrostatic Energy>
54.17811

> <Hydrogen Bond Energy>
0

> <Solvation Free Energy>
0

> <HasGasteigerCharges>
true

> <REMARK99>
REMARK  99  MacroMolecule created from Mol2 file
REMARK  99  CHEMBL1644308
REMARK  99  PROTEIN
REMARK  99  GASTEIGER
REMARK  99
REMARK  99

$$$$
CHEMBL4446679
  SciTegic05292516403D

 65 67  0  0  0  0            999 V2000
   11.8819  -11.8030    2.0146 C   0  0
   12.3926  -10.7051    1.0858 C   0  0  2  0  0  0
   13.9248  -10.7420    0.9489 C   0  0
   14.4052  -11.9676    0.1587 C   0  0
   15.9290  -11.9734    0.0181 C   0  0
   16.4113  -13.1952   -0.7655 C   0  0
   17.9337  -13.2023   -0.9022 C   0  0
   18.4177  -14.4154   -1.6803 C   0  0
   12.5573  -12.3780    2.8565 O   0  0
   10.5720  -12.1055    1.8352 O   0  0
   11.9098   -9.0800    1.7740 S   0  0
    9.2910   -7.5778    1.6622 S   0  0
   10.2312   -8.9554    1.2894 C   0  0
    9.6226   -9.9193    0.6306 N   0  0
    8.3171   -9.5261    0.3476 C   0  0
    7.9473   -8.2784    0.8497 C   0  0
    7.3587  -10.2627   -0.3767 C   0  0
    6.0673   -9.7405   -0.5716 C   0  0
    5.7094   -8.5010   -0.0472 C   0  0
    6.6553   -7.7537    0.6711 C   0  0
    3.3233   -8.4438   -0.8273 C   0  0
    2.0871   -7.6248   -0.6775 C   0  0
    2.0933   -6.2373   -0.8378 C   0  0
    0.9127   -5.5067   -0.6566 C   0  0
   -0.2958   -6.1397   -0.3168 C   0  0
   -0.2760   -7.5425   -0.1835 C   0  0
    0.8942   -8.2789   -0.3710 C   0  0
    3.2395   -9.4772   -1.4780 O   0  0
    4.4247   -7.9319   -0.1681 N   0  0
   -1.6123   -5.3651   -0.1098 C   0  0
   -2.1489   -5.6242    1.3149 C   0  0
   -1.4689   -3.8349   -0.2709 C   0  0
   -2.6589   -5.8381   -1.1412 C   0  0
   11.9607  -10.8431    0.0881 H   0  0
   14.2723   -9.8437    0.4214 H   0  0
   14.4032  -10.7407    1.9371 H   0  0
   14.0848  -12.8891    0.6578 H   0  0
   13.9459  -11.9636   -0.8373 H   0  0
   16.2547  -11.0583   -0.4913 H   0  0
   16.3893  -11.9707    1.0137 H   0  0
   16.0841  -14.1104   -0.2572 H   0  0
   15.9527  -13.1974   -1.7618 H   0  0
   18.2661  -12.2913   -1.4132 H   0  0
   18.3968  -13.2045    0.0915 H   0  0
   19.5088  -14.4007   -1.7651 H   0  0
   17.9985  -14.4258   -2.6915 H   0  0
   18.1285  -15.3444   -1.1786 H   0  0
   10.1008  -11.4884    1.2228 H   0  0
    7.6169  -11.2367   -0.7834 H   0  0
    5.3568  -10.3434   -1.1316 H   0  0
    6.4091   -6.7820    1.0886 H   0  0
    2.9936   -5.7074   -1.1335 H   0  0
    0.9597   -4.4300   -0.8025 H   0  0
   -1.1842   -8.0888    0.0628 H   0  0
    0.8729   -9.3618   -0.2682 H   0  0
    4.2859   -7.0627    0.3315 H   0  0
   -3.0668   -5.0545    1.5013 H   0  0
   -1.4135   -5.3295    2.0729 H   0  0
   -2.3889   -6.6799    1.4824 H   0  0
   -2.4276   -3.3287   -0.1053 H   0  0
   -1.1334   -3.5646   -1.2789 H   0  0
   -0.7556   -3.4186    0.4501 H   0  0
   -3.5964   -5.2792   -1.0378 H   0  0
   -2.9042   -6.8995   -1.0257 H   0  0
   -2.2960   -5.6940   -2.1658 H   0  0
  1  2  1  0
  1  9  2  0
  1 10  1  0
  2  3  1  0
  2 11  1  0
  2 34  1  0
  3  4  1  0
  3 35  1  0
  3 36  1  0
  4  5  1  0
  4 37  1  0
  4 38  1  0
  5  6  1  0
  5 39  1  0
  5 40  1  0
  6  7  1  0
  6 41  1  0
  6 42  1  0
  7  8  1  0
  7 43  1  0
  7 44  1  0
  8 45  1  0
  8 46  1  0
  8 47  1  0
 10 48  1  0
 11 13  1  0
 12 13  1  0
 12 16  1  0
 13 14  2  0
 14 15  1  0
 15 16  1  0
 15 17  2  0
 16 20  2  0
 17 18  1  0
 17 49  1  0
 18 19  2  0
 18 50  1  0
 19 20  1  0
 19 29  1  0
 20 51  1  0
 21 22  1  0
 21 28  2  0
 21 29  1  0
 22 23  1  0
 22 27  2  0
 23 24  2  0
 23 52  1  0
 24 25  1  0
 24 53  1  0
 25 26  2  0
 25 30  1  0
 26 27  1  0
 26 54  1  0
 27 55  1  0
 29 56  1  0
 30 31  1  0
 30 32  1  0
 30 33  1  0
 31 57  1  0
 31 58  1  0
 31 59  1  0
 32 60  1  0
 32 61  1  0
 32 62  1  0
 33 63  1  0
 33 64  1  0
 33 65  1  0
M  END
> <Name>
CHEMBL4446679

> <Clean Energy>
44.000999

> <chembl_id>
CHEMBL4446679

> <chembl_pref_name>
None

> <efficacy>
0.180436847

> <Forcefield>
MMFF

> <ForcefieldBase>
MMFF

> <ForcefieldFFML>
<?xml version="1.0" encoding="UTF-8"?>
<!DOCTYPE ffml SYSTEM "Ffml.dtd">
<ffml version="1.0">
<forcefield name="MMFF" derivedFrom="MMFF" base="MMFF">
<atomTypes>
<atomType
name="C100"
element="C"
mass="12.011"
annotation=""/>
<atomType
name="O101"
element="O"
mass="16"
annotation=""/>
<atomType
name="S102"
element="S"
mass="32.066"
annotation=""/>
<atomType
name="N103"
element="N"
mass="14.007"
annotation=""/>
<atomType
name="H104"
element="H"
mass="1.008"
annotation=""/>
</atomTypes>
<parameters>
</parameters>
</forcefield>
</ffml>

> <Initial Potential Energy>
114.3146

> <Initial RMS Gradient>
25.56513

> <Minimization Criteria>
CONJUG> Minimization exiting with gradient tolerance ( 0.0100000) satisfied.

> <CHARMm Energy>
29.58111

> <Potential Energy>
29.58111

> <RMS Gradient>
0.0094

> <Bond Energy>
7.9521

> <Angle Energy>
12.34339

> <STRBend>
0.25446

> <Dihedral Energy>
-2.89182

> <OOPLane>
0.03142

> <Van der Waals Energy>
58.89357

> <Electrostatic Energy>
-47.00201

> <Hydrogen Bond Energy>
0

> <Solvation Free Energy>
0

> <HasGasteigerCharges>
true

> <REMARK99>
REMARK  99  MacroMolecule created from Mol2 file
REMARK  99  CHEMBL4446679
REMARK  99  PROTEIN
REMARK  99  GASTEIGER
REMARK  99
REMARK  99

$$$$
CHEMBL5207071
  SciTegic05292516403D

 55 56  0  0  0  0            999 V2000
    6.5470    0.1290    0.7398 O   0  0
    5.6580   -0.3000    0.0213 C   0  0
    5.5511   -1.5261   -0.5231 O   0  0
    6.5775   -2.5278   -0.2944 C   0  0
    7.9270   -2.0790   -0.8658 C   0  0
    6.6776   -2.8904    1.1913 C   0  0
    6.0996   -3.7633   -1.0718 C   0  0
    4.6056    0.4599   -0.3630 N   0  0
    4.2458    1.7424    0.2522 C   0  0  1  0  0  0
    5.2050    2.9079   -0.0725 C   0  0
    6.5215    2.6142   -0.0480 O   0  0
    4.8158    4.0585   -0.2402 O   0  0
    2.8276    2.1774   -0.1619 C   0  0
    1.5696    0.9059    0.2219 S   0  0
    0.1099    1.8052   -0.3798 C   0  0
   -1.1625    1.0683   -0.0623 C   0  0
   -1.8634    1.3423    1.1188 C   0  0
   -3.0634    0.6875    1.3981 C   0  0
   -3.5838   -0.2607    0.5068 C   0  0
   -2.8640   -0.5591   -0.6574 C   0  0
   -1.6638    0.0970   -0.9382 C   0  0
   -4.9322   -0.8954    0.7670 C   0  0
   -6.0781    0.0320    0.4328 C   0  0
   -6.4407    0.2553   -0.9044 C   0  0
   -7.4500    1.1624   -1.2205 C   0  0
   -8.1059    1.8540   -0.2044 C   0  0
   -7.7628    1.6328    1.1279 C   0  0
   -6.7527    0.7258    1.4468 C   0  0
    8.6612   -2.8914   -0.8387 H   0  0
    8.3480   -1.2381   -0.3063 H   0  0
    7.8175   -1.7425   -1.9029 H   0  0
    7.3324   -3.7545    1.3473 H   0  0
    5.6888   -3.1235    1.6020 H   0  0
    7.0779   -2.0645    1.7872 H   0  0
    6.7999   -4.5998   -0.9770 H   0  0
    5.9793   -3.5313   -2.1365 H   0  0
    5.1168   -4.0923   -0.7145 H   0  0
    3.8875   -0.0373   -0.8789 H   0  0
    4.2890    1.6074    1.3409 H   0  0
    6.7289    1.7059    0.2778 H   0  0
    2.5463    3.0989    0.3595 H   0  0
    2.7944    2.3710   -1.2405 H   0  0
    0.0812    2.8013    0.0765 H   0  0
    0.1951    1.9499   -1.4627 H   0  0
   -1.4875    2.0807    1.8235 H   0  0
   -3.6031    0.9423    2.3072 H   0  0
   -3.2401   -1.2923   -1.3661 H   0  0
   -1.1279   -0.1464   -1.8529 H   0  0
   -5.0363   -1.8218    0.1870 H   0  0
   -4.9866   -1.2087    1.8178 H   0  0
   -5.9203   -0.2637   -1.7063 H   0  0
   -7.7299    1.3325   -2.2572 H   0  0
   -8.8868    2.5668   -0.4518 H   0  0
   -8.2820    2.1696    1.9179 H   0  0
   -6.4902    0.5718    2.4907 H   0  0
  2  1  2  0
  2  3  1  0
  3  4  1  0
  4  5  1  0
  4  6  1  0
  4  7  1  0
  5 29  1  0
  5 30  1  0
  5 31  1  0
  6 32  1  0
  6 33  1  0
  6 34  1  0
  7 35  1  0
  7 36  1  0
  7 37  1  0
  8  2  1  0
  8 38  1  0
  9  8  1  0
  9 10  1  0
  9 39  1  0
 10 11  1  0
 10 12  2  0
 11 40  1  0
 13  9  1  0
 13 41  1  0
 13 42  1  0
 14 13  1  0
 15 14  1  0
 15 43  1  0
 15 44  1  0
 16 15  1  0
 16 21  2  0
 17 16  1  0
 17 45  1  0
 18 17  2  0
 18 46  1  0
 19 18  1  0
 20 19  2  0
 20 47  1  0
 21 20  1  0
 21 48  1  0
 22 19  1  0
 22 49  1  0
 22 50  1  0
 23 22  1  0
 23 28  2  0
 24 23  1  0
 24 51  1  0
 25 24  2  0
 25 52  1  0
 26 25  1  0
 26 53  1  0
 27 26  2  0
 27 54  1  0
 28 27  1  0
 28 55  1  0
M  END
> <Name>
CHEMBL5207071

> <Clean Energy>
19.5406

> <chembl_id>
CHEMBL5207071

> <chembl_pref_name>
None

> <efficacy>
0.14

> <Forcefield>
MMFF

> <ForcefieldBase>
MMFF

> <ForcefieldFFML>
<?xml version="1.0" encoding="UTF-8"?>
<!DOCTYPE ffml SYSTEM "Ffml.dtd">
<ffml version="1.0">
<forcefield name="MMFF" derivedFrom="MMFF" base="MMFF">
<atomTypes>
<atomType
name="O100"
element="O"
mass="16"
annotation=""/>
<atomType
name="C101"
element="C"
mass="12.011"
annotation=""/>
<atomType
name="N102"
element="N"
mass="14.007"
annotation=""/>
<atomType
name="S103"
element="S"
mass="32.066"
annotation=""/>
<atomType
name="H104"
element="H"
mass="1.008"
annotation=""/>
</atomTypes>
<parameters>
</parameters>
</forcefield>
</ffml>

> <Initial Potential Energy>
142.22814

> <Initial RMS Gradient>
31.68725

> <Minimization Criteria>
CONJUG> Minimization exiting with gradient tolerance ( 0.0100000) satisfied.

> <CHARMm Energy>
13.2906

> <Potential Energy>
13.2906

> <RMS Gradient>
0.00973

> <Bond Energy>
6.00356

> <Angle Energy>
10.10125

> <STRBend>
0.32649

> <Dihedral Energy>
6.63423

> <OOPLane>
0.56819

> <Van der Waals Energy>
50.93383

> <Electrostatic Energy>
-61.27694

> <Hydrogen Bond Energy>
0

> <Solvation Free Energy>
0

> <HasGasteigerCharges>
true

> <REMARK99>
REMARK  99  MacroMolecule created from Mol2 file
REMARK  99  CHEMBL5207071
REMARK  99  PROTEIN
REMARK  99  GASTEIGER
REMARK  99
REMARK  99

$$$$
CHEMBL4294239
  SciTegic05292516403D

 78 82  0  0  0  0            999 V2000
   31.1786  -20.2659    0.6620 O   0  0
   30.7823  -19.8092   -0.6509 S   0  0
   31.3246  -20.3732   -1.8676 O   0  0
   18.8926  -16.4965    1.0530 C   0  0
   18.6619  -17.6797    0.3536 C   0  0
   19.7522  -18.4343   -0.1235 C   0  0
   20.1973  -16.0509    1.2997 C   0  0
   21.2706  -16.8177    0.8219 C   0  0
   21.0810  -18.0054    0.1094 C   0  0
   22.3817  -18.5319   -0.2334 C   0  0
   23.2989  -17.6343    0.2887 C   0  0
   22.6292  -16.6260    0.9245 N   0  0
   23.2655  -15.5221    1.6088 C   0  0
   17.3675  -18.1709    0.0775 N   0  0
   16.1511  -17.6379    0.4787 C   0  0
   15.0945  -18.3492   -0.0636 N   0  0
   15.9690  -16.6778    1.2159 O   0  0
   13.7072  -18.0049    0.2155 C   0  0
   22.6208  -19.7996   -1.0175 C   0  0
   24.0986  -20.1543   -0.9401 C   0  0
   24.6036  -21.0115    0.0578 C   0  0
   25.9765  -21.2718    0.1538 C   0  0
   26.8634  -20.6746   -0.7466 C   0  0
   26.3815  -19.8507   -1.7684 C   0  0
   25.0082  -19.5978   -1.8643 C   0  0
   23.7075  -21.5035    0.9690 O   0  0
   23.8834  -22.8865    1.2846 C   0  0
   28.3124  -20.9091   -0.5576 C   0  0
   28.7249  -22.0090   -0.2336 O   0  0
   29.1159  -19.7775   -0.7638 N   0  0
   31.1390  -18.0575   -0.7123 C   0  0
   31.5616  -17.3790    0.4384 C   0  0
   31.8302  -16.0000    0.3818 C   0  0
   31.6636  -15.3302   -0.8416 C   0  0
   31.2540  -16.0173   -1.9883 C   0  0
   30.9982  -17.3850   -1.9294 C   0  0
   13.2175  -16.9169   -0.7489 C   0  0
   11.7435  -16.5882   -0.5261 C   0  0
   10.8693  -17.8363   -0.6043 C   0  0
   11.3517  -18.9215    0.3535 C   0  0
   12.8242  -19.2548    0.1290 C   0  0
   32.2850  -15.2575    1.6211 C   0  0
   31.4308  -15.4543    2.6643 F   0  0
   32.3708  -13.9068    1.4508 F   0  0
   33.5173  -15.6489    2.0519 F   0  0
   18.0709  -15.8862    1.4262 H   0  0
   19.5679  -19.3546   -0.6696 H   0  0
   20.3651  -15.1326    1.8532 H   0  0
   24.3816  -17.6423    0.2715 H   0  0
   22.9511  -14.5915    1.1295 H   0  0
   24.3516  -15.6242    1.5410 H   0  0
   22.9575  -15.5418    2.6574 H   0  0
   17.2928  -19.0300   -0.4414 H   0  0
   15.2862  -19.0180   -0.7926 H   0  0
   13.6553  -17.6124    1.2394 H   0  0
   22.0019  -20.6177   -0.6329 H   0  0
   22.3313  -19.6467   -2.0642 H   0  0
   26.3764  -21.8973    0.9498 H   0  0
   27.0613  -19.4181   -2.5009 H   0  0
   24.6510  -18.9351   -2.6506 H   0  0
   24.6760  -23.0120    2.0285 H   0  0
   24.0898  -23.4840    0.3897 H   0  0
   22.9494  -23.2485    1.7247 H   0  0
   28.6896  -18.8597   -0.8258 H   0  0
   31.6815  -17.9156    1.3800 H   0  0
   31.8575  -14.2601   -0.9085 H   0  0
   31.1427  -15.4820   -2.9294 H   0  0
   30.6976  -17.9191   -2.8289 H   0  0
   13.8157  -16.0058   -0.6273 H   0  0
   13.3641  -17.2463   -1.7860 H   0  0
   11.6201  -16.1174    0.4569 H   0  0
   11.4117  -15.8586   -1.2734 H   0  0
    9.8309  -17.5744   -0.3722 H   0  0
   10.8795  -18.2247   -1.6302 H   0  0
   11.2071  -18.5864    1.3880 H   0  0
   10.7452  -19.8247    0.2227 H   0  0
   12.9426  -19.7293   -0.8541 H   0  0
   13.1500  -19.9944    0.8706 H   0  0
  2  1  2  0
  2 31  1  0
  3  2  2  0
  4  5  2  0
  4 46  1  0
  5  6  1  0
  5 14  1  0
  6  9  2  0
  6 47  1  0
  7  4  1  0
  7 48  1  0
  8  7  2  0
  8  9  1  0
  9 10  1  0
 10 11  2  0
 10 19  1  0
 11 12  1  0
 11 49  1  0
 12  8  1  0
 12 13  1  0
 13 50  1  0
 13 51  1  0
 13 52  1  0
 14 15  1  0
 14 53  1  0
 15 16  1  0
 15 17  2  0
 16 18  1  0
 16 54  1  0
 18 37  1  0
 18 41  1  0
 18 55  1  0
 19 20  1  0
 19 56  1  0
 19 57  1  0
 20 21  2  0
 21 22  1  0
 21 26  1  0
 22 23  2  0
 22 58  1  0
 23 24  1  0
 23 28  1  0
 24 25  2  0
 24 59  1  0
 25 20  1  0
 25 60  1  0
 26 27  1  0
 27 61  1  0
 27 62  1  0
 27 63  1  0
 28 29  2  0
 28 30  1  0
 30  2  1  0
 30 64  1  0
 31 32  2  0
 32 33  1  0
 32 65  1  0
 33 34  2  0
 33 42  1  0
 34 35  1  0
 34 66  1  0
 35 36  2  0
 35 67  1  0
 36 31  1  0
 36 68  1  0
 37 38  1  0
 37 69  1  0
 37 70  1  0
 38 39  1  0
 38 71  1  0
 38 72  1  0
 39 40  1  0
 39 73  1  0
 39 74  1  0
 40 41  1  0
 40 75  1  0
 40 76  1  0
 41 77  1  0
 41 78  1  0
 42 43  1  0
 42 44  1  0
 42 45  1  0
M  END
> <Name>
CHEMBL4294239

> <Clean Energy>
69.874603

> <chembl_id>
CHEMBL4294239

> <chembl_pref_name>
None

> <efficacy>
0.170940171

> <Forcefield>
MMFF

> <ForcefieldBase>
MMFF

> <ForcefieldFFML>
<?xml version="1.0" encoding="UTF-8"?>
<!DOCTYPE ffml SYSTEM "Ffml.dtd">
<ffml version="1.0">
<forcefield name="MMFF" derivedFrom="MMFF" base="MMFF">
<atomTypes>
<atomType
name="O100"
element="O"
mass="16"
annotation=""/>
<atomType
name="S101"
element="S"
mass="32.066"
annotation=""/>
<atomType
name="C102"
element="C"
mass="12.011"
annotation=""/>
<atomType
name="N103"
element="N"
mass="14.007"
annotation=""/>
<atomType
name="F104"
element="F"
mass="18.998"
annotation=""/>
<atomType
name="H105"
element="H"
mass="1.008"
annotation=""/>
</atomTypes>
<parameters>
</parameters>
</forcefield>
</ffml>

> <Initial Potential Energy>
146.74273

> <Initial RMS Gradient>
42.11766

> <Minimization Criteria>
CONJUG> Minimization exiting with gradient tolerance ( 0.0100000) satisfied.

> <CHARMm Energy>
-67.43238

> <Potential Energy>
-67.43238

> <RMS Gradient>
0.00944

> <Bond Energy>
9.49168

> <Angle Energy>
16.30015

> <STRBend>
-0.0396

> <Dihedral Energy>
-4.4741

> <OOPLane>
0.15403

> <Van der Waals Energy>
73.62289

> <Electrostatic Energy>
-162.48744

> <Hydrogen Bond Energy>
0

> <Solvation Free Energy>
0

> <HasGasteigerCharges>
true

> <REMARK99>
REMARK  99  MacroMolecule created from Mol2 file
REMARK  99  CHEMBL4294239
REMARK  99  PROTEIN
REMARK  99  GASTEIGER
REMARK  99
REMARK  99

$$$$
CHEMBL3397557
  SciTegic05292516403D

 49 51  0  0  0  0            999 V2000
    1.1507   -3.3974    1.5478 C   0  0
    2.0262   -3.3471    0.2858 C   0  0  1  0  0  0
    2.6692   -1.9484    0.1763 C   0  0
    1.4952   -3.8653    2.6237 O   0  0
   -0.0862   -2.8632    1.3849 O   0  0
    1.7138   -0.8472   -0.2136 C   0  0
    1.1875    0.0091    0.7640 C   0  0
    0.2752    1.0027    0.4135 C   0  0
   -0.1144    1.1529   -0.9158 C   0  0
    0.4099    0.3147   -1.8971 C   0  0
    1.3211   -0.6827   -1.5485 C   0  0
    3.1284   -4.2587    0.3350 O   0  0
    2.9254   -5.6024    0.1988 C   0  0
    4.0914   -6.3629    0.3375 C   0  0
    4.0602   -7.7541    0.2328 C   0  0
    2.8509   -8.4029   -0.0180 C   0  0
    1.6797   -7.6563   -0.1630 C   0  0
    1.7176   -6.2550   -0.0531 C   0  0
    2.8638   -9.8748   -0.1079 C   0  0
    1.8196  -10.5944   -0.3807 N   0  0
    2.2176  -11.9464   -0.3633 O   0  0
    1.0943  -12.7894   -0.6261 C   0  0
    1.5097  -14.2084   -0.3485 C   0  0
    1.2901  -14.7736    0.9158 C   0  0
    1.7220  -16.0698    1.1926 C   0  0
    2.3825  -16.8072    0.2118 C   0  0
    2.6104  -16.2536   -1.0467 C   0  0
    2.1778  -14.9589   -1.3264 C   0  0
    1.4160   -3.5591   -0.6003 H   0  0
    3.1665   -1.6918    1.1220 H   0  0
    3.4823   -1.9750   -0.5625 H   0  0
   -0.2221   -2.3429    0.5654 H   0  0
    1.4765   -0.1044    1.8082 H   0  0
   -0.1300    1.6646    1.1760 H   0  0
   -0.8202    1.9341   -1.1885 H   0  0
    0.1116    0.4430   -2.9351 H   0  0
    1.7295   -1.3220   -2.3290 H   0  0
    5.0372   -5.8659    0.5412 H   0  0
    4.9833   -8.3150    0.3547 H   0  0
    0.7329   -8.1583   -0.3503 H   0  0
    0.7825   -5.7169   -0.1596 H   0  0
    3.8390  -10.3639    0.0743 H   0  0
    0.2497  -12.5043    0.0130 H   0  0
    0.7860  -12.6734   -1.6716 H   0  0
    0.7942  -14.1975    1.6946 H   0  0
    1.5514  -16.5038    2.1745 H   0  0
    2.7277  -17.8128    0.4316 H   0  0
    3.1323  -16.8289   -1.8069 H   0  0
    2.3790  -14.5261   -2.3038 H   0  0
  1  2  1  0
  1  4  2  0
  1  5  1  0
  2  3  1  0
  2 12  1  0
  2 29  1  0
  3  6  1  0
  3 30  1  0
  3 31  1  0
  5 32  1  0
  6  7  1  0
  6 11  2  0
  7  8  2  0
  7 33  1  0
  8  9  1  0
  8 34  1  0
  9 10  2  0
  9 35  1  0
 10 11  1  0
 10 36  1  0
 11 37  1  0
 12 13  1  0
 13 14  1  0
 13 18  2  0
 14 15  2  0
 14 38  1  0
 15 16  1  0
 15 39  1  0
 16 17  2  0
 16 19  1  0
 17 18  1  0
 17 40  1  0
 18 41  1  0
 19 20  2  0
 19 42  1  0
 20 21  1  0
 21 22  1  0
 22 23  1  0
 22 43  1  0
 22 44  1  0
 23 24  1  0
 23 28  2  0
 24 25  2  0
 24 45  1  0
 25 26  1  0
 25 46  1  0
 26 27  2  0
 26 47  1  0
 27 28  1  0
 27 48  1  0
 28 49  1  0
M  END
> <Name>
CHEMBL3397557

> <Clean Energy>
11.9908

> <chembl_id>
CHEMBL3397557

> <chembl_pref_name>
None

> <efficacy>
0.44

> <Forcefield>
MMFF

> <ForcefieldBase>
MMFF

> <ForcefieldFFML>
<?xml version="1.0" encoding="UTF-8"?>
<!DOCTYPE ffml SYSTEM "Ffml.dtd">
<ffml version="1.0">
<forcefield name="MMFF" derivedFrom="MMFF" base="MMFF">
<atomTypes>
<atomType
name="C100"
element="C"
mass="12.011"
annotation=""/>
<atomType
name="O101"
element="O"
mass="16"
annotation=""/>
<atomType
name="N102"
element="N"
mass="14.007"
annotation=""/>
<atomType
name="H103"
element="H"
mass="1.008"
annotation=""/>
</atomTypes>
<parameters>
</parameters>
</forcefield>
</ffml>

> <Initial Potential Energy>
175.77449

> <Initial RMS Gradient>
30.15364

> <Minimization Criteria>
CONJUG> Minimization exiting with gradient tolerance ( 0.0100000) satisfied.

> <CHARMm Energy>
105.84778

> <Potential Energy>
105.84778

> <RMS Gradient>
0.00943

> <Bond Energy>
5.40359

> <Angle Energy>
14.49569

> <STRBend>
0.37877

> <Dihedral Energy>
-0.22809

> <OOPLane>
0.02711

> <Van der Waals Energy>
54.35486

> <Electrostatic Energy>
31.41585

> <Hydrogen Bond Energy>
0

> <Solvation Free Energy>
0

> <HasGasteigerCharges>
true

> <REMARK99>
REMARK  99  MacroMolecule created from Mol2 file
REMARK  99  CHEMBL3397557
REMARK  99  PROTEIN
REMARK  99  GASTEIGER
REMARK  99
REMARK  99

$$$$
CHEMBL58339
  SciTegic05292516403D

 86 91  0  0  0  0            999 V2000
    1.0083    1.8461    0.0721 C   0  0
    2.4647    2.1179   -0.2112 C   0  0  2  0  0  0
    0.6048    2.6621    1.1281 C   0  0
   13.4951   -3.2134    2.3876 N   0  0
    1.6055    3.4604    1.6221 O   0  0
   13.3553   -1.8665    2.4320 C   0  0
    0.1252    0.8908   -0.4365 C   0  0
    2.6617    3.4227    0.6233 C   0  0
   -1.1775    0.8538    0.1154 C   0  0
   12.5454   -3.9400    1.7369 C   0  0
   -0.6787    2.6559    1.6700 C   0  0
   11.9137   -1.3673    1.6006 S   0  0
   -1.6136    1.7683    1.1073 C   0  0
    2.8958    2.2166   -1.6895 C   0  0
    4.3428    2.4722   -1.8999 N   0  0
   11.4893   -3.0757    1.1031 C   0  0  2  0  0  0
   -2.0742   -0.0900   -0.3414 O   0  0
   14.1417   -1.1148    2.9862 O   0  0
    5.1279    1.2393   -2.1531 C   0  0  2  0  0  0
   12.5797   -5.1634    1.6765 O   0  0
   10.0978   -3.5154    1.5687 C   0  0
    5.4796    0.3847   -0.9323 C   0  0
    6.1301   -0.7919   -1.4210 O   0  0
   -2.0250   -1.2536    0.5013 C   0  0
    8.9842   -2.8213    0.8256 C   0  0
    7.0101   -1.4267   -0.5974 C   0  0
    4.5196    3.2553   -3.1422 C   0  0
    0.5206   -0.0484   -1.5374 C   0  0
    2.5517    4.7457   -0.1507 C   0  0
    3.9875    3.3924    1.3931 C   0  0
   -1.0413    3.6051    2.7760 C   0  0
    8.7607   -3.0988   -0.5277 C   0  0
    8.1810   -1.8717    1.4683 C   0  0
    7.1905   -1.1837    0.7616 C   0  0
    7.7803   -2.4029   -1.2301 C   0  0
   -3.0410    1.7495    1.5903 C   0  0
   -3.1585   -2.1782    0.1234 C   0  0
    6.0050    3.1263   -3.4198 C   0  0
    6.3938    1.7706   -2.8455 C   0  0
   -4.2487   -2.3737    0.9849 C   0  0
   -3.1329   -2.8592   -1.1014 C   0  0
   -4.1701   -3.7253   -1.4519 C   0  0
   -5.2852   -3.2439    0.6346 C   0  0
   -5.2442   -3.9201   -0.5838 C   0  0
    3.0043    1.2970    0.2735 H   0  0
   14.2800   -3.6600    2.8405 H   0  0
    2.6118    1.3155   -2.2395 H   0  0
    2.3013    3.0148   -2.1551 H   0  0
   11.6041   -3.1536    0.0165 H   0  0
    4.6071    0.6057   -2.8873 H   0  0
    9.9745   -4.5962    1.4153 H   0  0
    9.9870   -3.3701    2.6521 H   0  0
    6.1179    0.9711   -0.2614 H   0  0
    4.5833    0.0633   -0.3971 H   0  0
   -1.0729   -1.7833    0.3682 H   0  0
   -2.1096   -0.9823    1.5614 H   0  0
    3.9470    2.8258   -3.9749 H   0  0
    4.2263    4.3020   -3.0166 H   0  0
   -0.1583   -0.8994   -1.6372 H   0  0
    1.5120   -0.4706   -1.3430 H   0  0
    0.5222    0.4794   -2.4960 H   0  0
    3.3905    4.8996   -0.8334 H   0  0
    2.5286    5.5947    0.5434 H   0  0
    1.6176    4.7976   -0.7211 H   0  0
    4.0694    4.2576    2.0614 H   0  0
    4.8512    3.3938    0.7220 H   0  0
    4.0466    2.5060    2.0351 H   0  0
   -1.6448    3.1017    3.5384 H   0  0
   -1.6031    4.4534    2.3725 H   0  0
   -0.1572    3.9951    3.2904 H   0  0
    9.3563   -3.8431   -1.0500 H   0  0
    8.3284   -1.6466    2.5227 H   0  0
    6.5813   -0.4649    1.2995 H   0  0
    7.6121   -2.6108   -2.2838 H   0  0
   -3.4069    2.7658    1.7696 H   0  0
   -3.1174    1.1718    2.5167 H   0  0
   -3.7176    1.3130    0.8487 H   0  0
    6.2287    3.1982   -4.4887 H   0  0
    6.5625    3.9184   -2.9057 H   0  0
    6.7204    1.0875   -3.6375 H   0  0
    7.2304    1.8955   -2.1481 H   0  0
   -4.2957   -1.8495    1.9366 H   0  0
   -2.2995   -2.7142   -1.7867 H   0  0
   -4.1366   -4.2441   -2.4059 H   0  0
   -6.1265   -3.3944    1.3089 H   0  0
   -6.0519   -4.5948   -0.8575 H   0  0
  2  1  1  0
  2 45  1  0
  3  1  2  0
  4  6  1  0
  4 10  1  0
  4 46  1  0
  5  3  1  0
  6 12  1  0
  7  1  1  0
  8  2  1  0
  8  5  1  0
  9  7  2  0
 10 16  1  0
 11  3  1  0
 12 16  1  0
 13  9  1  0
 13 11  2  0
 14  2  1  0
 14 47  1  0
 14 48  1  0
 15 14  1  0
 16 21  1  0
 16 49  1  0
 17  9  1  0
 18  6  2  0
 19 15  1  0
 19 22  1  0
 19 50  1  0
 20 10  2  0
 21 25  1  0
 21 51  1  0
 21 52  1  0
 22 53  1  0
 22 54  1  0
 23 22  1  0
 24 17  1  0
 24 55  1  0
 24 56  1  0
 25 32  1  0
 25 33  2  0
 26 23  1  0
 27 15  1  0
 27 57  1  0
 27 58  1  0
 28  7  1  0
 28 59  1  0
 28 60  1  0
 28 61  1  0
 29  8  1  0
 29 62  1  0
 29 63  1  0
 29 64  1  0
 30  8  1  0
 30 65  1  0
 30 66  1  0
 30 67  1  0
 31 11  1  0
 31 68  1  0
 31 69  1  0
 31 70  1  0
 32 35  2  0
 32 71  1  0
 33 34  1  0
 33 72  1  0
 34 26  2  0
 34 73  1  0
 35 26  1  0
 35 74  1  0
 36 13  1  0
 36 75  1  0
 36 76  1  0
 36 77  1  0
 37 24  1  0
 38 27  1  0
 38 39  1  0
 38 78  1  0
 38 79  1  0
 39 19  1  0
 39 80  1  0
 39 81  1  0
 40 37  2  0
 40 82  1  0
 41 37  1  0
 41 83  1  0
 42 41  2  0
 42 84  1  0
 43 40  1  0
 43 85  1  0
 44 42  1  0
 44 43  2  0
 44 86  1  0
M  END
> <Name>
CHEMBL58339

> <Clean Energy>
190.160995

> <chembl_id>
CHEMBL58339

> <chembl_pref_name>
None

> <efficacy>
0.044831224

> <Forcefield>
MMFF

> <ForcefieldBase>
MMFF

> <ForcefieldFFML>
<?xml version="1.0" encoding="UTF-8"?>
<!DOCTYPE ffml SYSTEM "Ffml.dtd">
<ffml version="1.0">
<forcefield name="MMFF" derivedFrom="MMFF" base="MMFF">
<atomTypes>
<atomType
name="C100"
element="C"
mass="12.011"
annotation=""/>
<atomType
name="N101"
element="N"
mass="14.007"
annotation=""/>
<atomType
name="O102"
element="O"
mass="16"
annotation=""/>
<atomType
name="S103"
element="S"
mass="32.066"
annotation=""/>
<atomType
name="H104"
element="H"
mass="1.008"
annotation=""/>
</atomTypes>
<parameters>
</parameters>
</forcefield>
</ffml>

> <Initial Potential Energy>
440.76475

> <Initial RMS Gradient>
50.30123

> <Minimization Criteria>
STEEPD> Minimization exiting with gradient tolerance ( 3.0000000) satisfied.

> <CHARMm Energy>
66.89234

> <Potential Energy>
66.89234

> <RMS Gradient>
0.06999

> <Bond Energy>
10.03079

> <Angle Energy>
29.65392

> <STRBend>
0.95872

> <Dihedral Energy>
18.12341

> <OOPLane>
0.12955

> <Van der Waals Energy>
79.19939

> <Electrostatic Energy>
-71.20345

> <Hydrogen Bond Energy>
0

> <Solvation Free Energy>
0

> <HasGasteigerCharges>
true

> <REMARK99>
REMARK  99  MacroMolecule created from Mol2 file
REMARK  99  CHEMBL58339
REMARK  99  PROTEIN
REMARK  99  GASTEIGER
REMARK  99
REMARK  99

$$$$
CHEMBL2206303
  SciTegic05292516403D

 62 64  0  0  0  0            999 V2000
   18.3966   -3.5195    0.0325 C   0  0  2  0  0  0
    7.0158   -9.5171   -0.1502 C   0  0
    6.9080  -10.8181    0.3552 C   0  0
    8.0500  -11.5914    0.6113 C   0  0
    8.2652   -8.9415   -0.4163 C   0  0
    9.3738   -9.7382   -0.1463 C   0  0
    9.3050  -11.0280    0.3488 C   0  0
   10.5636  -11.5412    0.4949 N   0  0
   11.3566  -10.5654    0.0896 C   0  0
   10.6933   -9.4289   -0.3094 O   0  0
   12.7126  -10.5572    0.0276 N   0  0
   13.4518   -9.3660   -0.4541 C   0  0
   13.9995   -8.4826    0.6883 C   0  0
   14.9332   -7.3566    0.2588 C   0  0
   16.2267   -7.2452    0.8012 C   0  0
   17.0825   -6.1735    0.4641 C   0  0
   16.6618   -5.1823   -0.4165 C   0  0
   15.3812   -5.2930   -0.9683 C   0  0
   14.5218   -6.3564   -0.6308 C   0  0
   17.4173   -4.1275   -0.8617 O   0  0
   18.1656   -1.9507    0.0875 C   0  0
   19.1811   -1.1897   -0.0102 O   0  5
   16.9434   -1.6508    0.2866 O   0  0
   13.4350  -11.6664    0.6532 C   0  0
   14.5982  -12.1702   -0.2059 C   0  0
   15.2216  -13.4369    0.3856 C   0  0
   16.4217  -13.9016   -0.4424 C   0  0
   17.0462  -15.1671    0.1493 C   0  0
   18.2039  -15.7184   -0.6856 C   0  0
   19.4152  -14.7995   -0.7270 C   0  0
   19.7832   -3.8791   -0.4737 C   0  0
   18.2659   -3.8737    1.0624 H   0  0
    6.1120   -8.9401   -0.3386 H   0  0
    5.9242  -11.2384    0.5534 H   0  0
    7.9744  -12.6004    1.0002 H   0  0
    8.3670   -7.9355   -0.8045 H   0  0
   14.2817   -9.6885   -1.0929 H   0  0
   12.8235   -8.7611   -1.1197 H   0  0
   13.1618   -8.0407    1.2424 H   0  0
   14.5297   -9.1189    1.4072 H   0  0
   16.5944   -7.9879    1.5061 H   0  0
   18.0767   -6.1412    0.8954 H   0  0
   15.0426   -4.5178   -1.6531 H   0  0
   13.5236   -6.3706   -1.0606 H   0  0
   13.8087  -11.3473    1.6336 H   0  0
   12.7677  -12.5165    0.8443 H   0  0
   14.2468  -12.3737   -1.2249 H   0  0
   15.3733  -11.3983   -0.2778 H   0  0
   15.5412  -13.2428    1.4166 H   0  0
   14.4693  -14.2337    0.4240 H   0  0
   16.1036  -14.0952   -1.4740 H   0  0
   17.1646  -13.0968   -0.4766 H   0  0
   17.3926  -14.9669    1.1707 H   0  0
   16.2760  -15.9453    0.2233 H   0  0
   18.5120  -16.6799   -0.2579 H   0  0
   17.8640  -15.9203   -1.7081 H   0  0
   20.2388  -15.2887   -1.2570 H   0  0
   19.7597  -14.5561    0.2832 H   0  0
   19.1934  -13.8658   -1.2518 H   0  0
   19.9073   -4.9657   -0.5304 H   0  0
   20.5654   -3.4757    0.1767 H   0  0
   19.9418   -3.4904   -1.4859 H   0  0
  1 21  1  0
  1 31  1  0
  1 32  1  0
  2  3  2  0
  2 33  1  0
  3  4  1  0
  3 34  1  0
  4  7  2  0
  4 35  1  0
  5  2  1  0
  5 36  1  0
  6  5  2  0
  6  7  1  0
  7  8  1  0
  8  9  2  0
  9 10  1  0
  9 11  1  0
 10  6  1  0
 11 12  1  0
 11 24  1  0
 12 13  1  0
 12 37  1  0
 12 38  1  0
 13 14  1  0
 13 39  1  0
 13 40  1  0
 14 15  2  0
 15 16  1  0
 15 41  1  0
 16 17  2  0
 16 42  1  0
 17 18  1  0
 17 20  1  0
 18 19  2  0
 18 43  1  0
 19 14  1  0
 19 44  1  0
 20  1  1  0
 21 22  1  0
 21 23  2  0
 24 25  1  0
 24 45  1  0
 24 46  1  0
 25 26  1  0
 25 47  1  0
 25 48  1  0
 26 27  1  0
 26 49  1  0
 26 50  1  0
 27 28  1  0
 27 51  1  0
 27 52  1  0
 28 29  1  0
 28 53  1  0
 28 54  1  0
 29 30  1  0
 29 55  1  0
 29 56  1  0
 30 57  1  0
 30 58  1  0
 30 59  1  0
 31 60  1  0
 31 61  1  0
 31 62  1  0
M  CHG  1  22  -1
M  END
> <Name>
CHEMBL2206303

> <Clean Energy>
47.168499

> <chembl_id>
CHEMBL2206303

> <chembl_pref_name>
None

> <efficacy>
0.32

> <Forcefield>
MMFF

> <ForcefieldBase>
MMFF

> <ForcefieldFFML>
<?xml version="1.0" encoding="UTF-8"?>
<!DOCTYPE ffml SYSTEM "Ffml.dtd">
<ffml version="1.0">
<forcefield name="MMFF" derivedFrom="MMFF" base="MMFF">
<atomTypes>
<atomType
name="C100"
element="C"
mass="12.011"
annotation=""/>
<atomType
name="N101"
element="N"
mass="14.007"
annotation=""/>
<atomType
name="O102"
element="O"
mass="16"
annotation=""/>
<atomType
name="H103"
element="H"
mass="1.008"
annotation=""/>
</atomTypes>
<parameters>
</parameters>
</forcefield>
</ffml>

> <Initial Potential Energy>
128.64621

> <Initial RMS Gradient>
26.73294

> <Minimization Criteria>
STEEPD> Minimization exiting with gradient tolerance ( 3.0000000) satisfied.

> <CHARMm Energy>
58.6153

> <Potential Energy>
58.6153

> <RMS Gradient>
0.06428

> <Bond Energy>
7.95895

> <Angle Energy>
17.95715

> <STRBend>
1.08085

> <Dihedral Energy>
-8.37501

> <OOPLane>
0.29083

> <Van der Waals Energy>
48.62861

> <Electrostatic Energy>
-8.92607

> <Hydrogen Bond Energy>
0

> <Solvation Free Energy>
0

> <HasGasteigerCharges>
true

> <REMARK99>
REMARK  99  MacroMolecule created from Mol2 file
REMARK  99  CHEMBL2206303
REMARK  99  PROTEIN
REMARK  99  GASTEIGER
REMARK  99
REMARK  99

$$$$
CHEMBL4060007
  SciTegic05292516403D

 48 50  0  0  0  0            999 V2000
   40.2264  -12.6228    2.2113 O   0  0
   40.0899  -12.7801    0.7761 S   0  0
   41.2116  -13.1096   -0.0827 O   0  0
   35.8446   -9.3489    0.6415 C   0  0
   36.0263  -10.4959    1.4217 C   0  0
   37.2112  -11.2368    1.3753 C   0  0
   36.8719   -8.9265   -0.2146 C   0  0
   38.0854   -9.6339   -0.2482 C   0  0
   38.2346  -10.7879    0.5264 C   0  0
   39.4978  -11.2713    0.2348 N   0  0
   40.2441  -10.2956   -0.4078 C   0  0
   39.3240   -9.3806   -0.8888 C   0  0
   38.8212  -13.9783    0.4383 C   0  0
   38.2462  -14.0622   -0.8332 C   0  0
   37.2453  -15.0133   -1.0816 C   0  0
   36.8282  -15.8802   -0.0685 C   0  0
   37.4229  -15.7931    1.1947 C   0  0
   38.4206  -14.8516    1.4533 C   0  0
   41.7411  -10.2596   -0.4897 C   0  0
   42.2554   -8.8129   -0.4072 C   0  0
   43.7704   -8.7392   -0.3147 C   0  0
   34.5625   -8.5638    0.7027 C   0  0
   44.2392   -7.3065   -0.2254 C   0  0
   44.6871   -6.7872    0.7854 O   0  0
   44.1731   -6.6434   -1.4040 O   0  0
   34.7454   -7.2223    0.5524 F   0  0
   33.6833   -8.9331   -0.2732 F   0  0
   33.8880   -8.7187    1.8774 F   0  0
   35.8659  -16.8436   -0.1801 O   0  0
   35.2551  -17.0033   -1.4546 C   0  0
   35.2387  -10.8195    2.0997 H   0  0
   37.3256  -12.1059    2.0167 H   0  0
   36.7532   -8.0237   -0.8112 H   0  0
   39.5480   -8.5154   -1.5008 H   0  0
   38.5689  -13.4070   -1.6392 H   0  0
   36.8133  -15.0547   -2.0770 H   0  0
   37.1035  -16.4742    1.9825 H   0  0
   38.8765  -14.8025    2.4401 H   0  0
   42.1816  -10.8193    0.3423 H   0  0
   42.0706  -10.7241   -1.4258 H   0  0
   41.9151   -8.2485   -1.2844 H   0  0
   41.8205   -8.3099    0.4671 H   0  0
   44.1272   -9.2662    0.5780 H   0  0
   44.2528   -9.2160   -1.1756 H   0  0
   43.7013   -7.1462   -2.0950 H   0  0
   34.5274  -17.8169   -1.3771 H   0  0
   35.9924  -17.2868   -2.2130 H   0  0
   34.7132  -16.0983   -1.7481 H   0  0
  2  1  2  0
  2 13  1  0
  3  2  2  0
  4  5  2  0
  4 22  1  0
  5  6  1  0
  5 31  1  0
  6  9  2  0
  6 32  1  0
  7  4  1  0
  7 33  1  0
  8  7  2  0
  8  9  1  0
  9 10  1  0
 10  2  1  0
 10 11  1  0
 11 12  2  0
 11 19  1  0
 12  8  1  0
 12 34  1  0
 13 14  2  0
 14 15  1  0
 14 35  1  0
 15 16  2  0
 15 36  1  0
 16 17  1  0
 16 29  1  0
 17 18  2  0
 17 37  1  0
 18 13  1  0
 18 38  1  0
 19 20  1  0
 19 39  1  0
 19 40  1  0
 20 21  1  0
 20 41  1  0
 20 42  1  0
 21 23  1  0
 21 43  1  0
 21 44  1  0
 22 26  1  0
 22 27  1  0
 22 28  1  0
 23 24  2  0
 23 25  1  0
 25 45  1  0
 29 30  1  0
 30 46  1  0
 30 47  1  0
 30 48  1  0
M  END
> <Name>
CHEMBL4060007

> <Clean Energy>
48.659401

> <chembl_id>
CHEMBL4060007

> <chembl_pref_name>
None

> <efficacy>
0.38

> <Forcefield>
MMFF

> <ForcefieldBase>
MMFF

> <ForcefieldFFML>
<?xml version="1.0" encoding="UTF-8"?>
<!DOCTYPE ffml SYSTEM "Ffml.dtd">
<ffml version="1.0">
<forcefield name="MMFF" derivedFrom="MMFF" base="MMFF">
<atomTypes>
<atomType
name="O100"
element="O"
mass="16"
annotation=""/>
<atomType
name="S101"
element="S"
mass="32.066"
annotation=""/>
<atomType
name="C102"
element="C"
mass="12.011"
annotation=""/>
<atomType
name="N103"
element="N"
mass="14.007"
annotation=""/>
<atomType
name="F104"
element="F"
mass="18.998"
annotation=""/>
<atomType
name="H105"
element="H"
mass="1.008"
annotation=""/>
</atomTypes>
<parameters>
</parameters>
</forcefield>
</ffml>

> <Initial Potential Energy>
696.98615

> <Initial RMS Gradient>
361.26562

> <Minimization Criteria>
STEEPD> Minimization exiting with gradient tolerance ( 3.0000000) satisfied.

> <CHARMm Energy>
131.86821

> <Potential Energy>
131.86821

> <RMS Gradient>
0.06284

> <Bond Energy>
4.43964

> <Angle Energy>
17.30723

> <STRBend>
0.37991

> <Dihedral Energy>
-1.79305

> <OOPLane>
0.15948

> <Van der Waals Energy>
42.9699

> <Electrostatic Energy>
68.4051

> <Hydrogen Bond Energy>
0

> <Solvation Free Energy>
0

> <HasGasteigerCharges>
true

> <REMARK99>
REMARK  99  MacroMolecule created from Mol2 file
REMARK  99  CHEMBL4060007
REMARK  99  PROTEIN
REMARK  99  GASTEIGER
REMARK  99
REMARK  99

$$$$
CHEMBL5086718
  SciTegic05292516403D

 52 55  0  0  0  0            999 V2000
   10.3648  -28.6244   -2.7056 F   0  0
   10.7442  -29.5651   -1.7943 C   0  0
   12.0418  -29.2922   -1.4753 F   0  0
   -0.1437  -20.7331   -1.1489 F   0  0
   -0.7206  -21.8056   -1.7621 C   0  0
    0.1464  -22.1461   -2.7630 F   0  0
   -2.1995  -23.5442   -0.7073 C   0  0
   -2.4464  -24.5987    0.1689 C   0  0
   -1.4137  -25.0871    0.9645 C   0  0
   -0.1377  -24.5239    0.8888 C   0  0
    0.1489  -23.4737   -0.0019 C   0  0
   -0.9133  -22.9648   -0.8019 C   0  0
   -1.8534  -21.3542   -2.3625 F   0  0
    1.5374  -22.8408    0.0344 C   0  0
    2.6720  -23.7743   -0.0043 N   0  0
    3.8017  -23.5547    0.7807 C   0  0
    5.0915  -24.2800    0.4998 C   0  0
    3.7944  -22.7414    1.7017 O   0  0
    5.2118  -25.3502   -0.4165 C   0  0
    6.4547  -25.9826   -0.6426 C   0  0
    6.2425  -23.8410    1.2030 C   0  0
    7.4467  -24.4758    0.9643 C   0  0
    7.5559  -25.5265    0.0579 C   0  0
    8.8922  -25.9658    0.0805 N   0  0
    9.6256  -25.1814    1.0019 C   0  0
    8.7030  -24.2585    1.5363 N   0  0
   10.8052  -25.2732    1.3001 O   0  0
    9.4559  -27.0803   -0.6413 C   0  0
    9.2602  -28.4505    0.0012 C   0  0
    8.4836  -28.6021    1.1690 C   0  0
    8.2249  -29.8556    1.7201 C   0  0
    8.7495  -30.9904    1.1244 C   0  0
    9.5486  -30.8680   -0.0105 C   0  0
    9.8243  -29.6118   -0.5860 C   0  0
   10.7906  -30.7440   -2.4876 F   0  0
   -3.0228  -23.1635   -1.3134 H   0  0
   -3.4438  -25.0288    0.2391 H   0  0
   -1.6103  -25.9001    1.6608 H   0  0
    0.6414  -24.8982    1.5521 H   0  0
    1.6920  -22.1991   -0.8372 H   0  0
    1.5980  -22.1993    0.9204 H   0  0
    2.7038  -24.4449   -0.7581 H   0  0
    4.3477  -25.7218   -0.9588 H   0  0
    6.5314  -26.8110   -1.3390 H   0  0
    6.1821  -23.0251    1.9173 H   0  0
    8.9638  -23.5875    2.2432 H   0  0
    9.0104  -27.0802   -1.6419 H   0  0
   10.5333  -26.9024   -0.7390 H   0  0
    8.0571  -27.7413    1.6779 H   0  0
    7.6062  -29.9366    2.6107 H   0  0
    8.5468  -31.9695    1.5492 H   0  0
    9.9615  -31.7705   -0.4551 H   0  0
  2  1  1  0
  2 35  1  0
  3  2  1  0
  5  4  1  0
  5 13  1  0
  6  5  1  0
  7  8  2  0
  7 36  1  0
  8  9  1  0
  8 37  1  0
  9 10  2  0
  9 38  1  0
 10 11  1  0
 10 39  1  0
 11 12  2  0
 11 14  1  0
 12  5  1  0
 12  7  1  0
 14 15  1  0
 14 40  1  0
 14 41  1  0
 15 16  1  0
 15 42  1  0
 16 17  1  0
 16 18  2  0
 17 19  2  0
 19 20  1  0
 19 43  1  0
 20 23  2  0
 20 44  1  0
 21 17  1  0
 21 45  1  0
 22 21  2  0
 22 23  1  0
 23 24  1  0
 24 25  1  0
 24 28  1  0
 25 26  1  0
 25 27  2  0
 26 22  1  0
 26 46  1  0
 28 29  1  0
 28 47  1  0
 28 48  1  0
 29 30  2  0
 30 31  1  0
 30 49  1  0
 31 32  2  0
 31 50  1  0
 32 33  1  0
 32 51  1  0
 33 34  2  0
 33 52  1  0
 34  2  1  0
 34 29  1  0
M  END
> <Name>
CHEMBL5086718

> <Clean Energy>
60.626099

> <chembl_id>
CHEMBL5086718

> <chembl_pref_name>
None

> <efficacy>
0.180436847

> <Forcefield>
MMFF

> <ForcefieldBase>
MMFF

> <ForcefieldFFML>
<?xml version="1.0" encoding="UTF-8"?>
<!DOCTYPE ffml SYSTEM "Ffml.dtd">
<ffml version="1.0">
<forcefield name="MMFF" derivedFrom="MMFF" base="MMFF">
<atomTypes>
<atomType
name="F100"
element="F"
mass="18.998"
annotation=""/>
<atomType
name="C101"
element="C"
mass="12.011"
annotation=""/>
<atomType
name="N102"
element="N"
mass="14.007"
annotation=""/>
<atomType
name="O103"
element="O"
mass="16"
annotation=""/>
<atomType
name="H104"
element="H"
mass="1.008"
annotation=""/>
</atomTypes>
<parameters>
</parameters>
</forcefield>
</ffml>

> <Initial Potential Energy>
305.19815

> <Initial RMS Gradient>
122.96338

> <Minimization Criteria>
CONJUG> Minimization exiting with gradient tolerance ( 0.0100000) satisfied.

> <CHARMm Energy>
26.14108

> <Potential Energy>
26.14108

> <RMS Gradient>
0.00876

> <Bond Energy>
11.24418

> <Angle Energy>
30.82221

> <STRBend>
-1.27775

> <Dihedral Energy>
-0.24626

> <OOPLane>
0.28496

> <Van der Waals Energy>
56.61225

> <Electrostatic Energy>
-71.2985

> <Hydrogen Bond Energy>
0

> <Solvation Free Energy>
0

> <HasGasteigerCharges>
true

> <REMARK99>
REMARK  99  MacroMolecule created from Mol2 file
REMARK  99  CHEMBL5086718
REMARK  99  PROTEIN
REMARK  99  GASTEIGER
REMARK  99
REMARK  99

$$$$
CHEMBL179330
  SciTegic05292516403D

 62 65  0  0  0  0            999 V2000
    2.0555    9.5059   -0.3938 C   0  0
    2.5227    8.2419   -0.8637 O   0  0
    1.7264    7.1516   -0.6390 C   0  0
    2.1480    5.9764   -1.2747 C   0  0
    1.4228    4.7842   -1.1510 C   0  0
    0.5697    7.1269    0.1390 C   0  0
   -0.1443    5.9282    0.2853 C   0  0
    0.2809    4.7485   -0.3483 C   0  0
   -0.5836    3.5393   -0.2551 C   0  0
   -1.7961    3.7496   -0.1916 O   0  0
   -0.1638    2.1756   -0.2652 N   0  0
   -0.9484    1.0904   -0.6904 C   0  0
   -2.3599    1.2484   -1.1622 C   0  0
    1.0656    1.6620    0.1752 C   0  0
    2.1601    2.2627    0.8282 C   0  0
    3.2657    1.4673    1.1669 C   0  0
    3.2992    0.1027    0.8909 C   0  0
    4.4274   -0.5481    1.3069 O   0  0
    4.3881   -1.9714    1.3249 C   0  0
    5.5202   -2.4248    1.9185 F   0  0
    4.3446   -2.4837    0.0756 F   0  0
    3.3372   -2.4359    2.0377 F   0  0
    2.2143   -0.4842    0.2432 C   0  0
    1.0744    0.2884   -0.0905 C   0  0
   -0.1921   -0.0723   -0.6399 C   0  0
   -0.5881   -1.4527   -1.0910 C   0  0
   -1.3503   -2.1667    0.0078 C   0  0
   -2.4228   -2.9991   -0.3563 C   0  0
   -0.9742   -2.1355    1.3628 C   0  0
   -1.6712   -2.8710    2.3269 C   0  0
   -2.7362   -3.6825    1.9504 C   0  0
   -3.0863   -3.7597    0.6071 C   0  0
   -4.1209   -4.5685    0.2299 O   0  0
   -3.6665   -5.8998   -0.0513 C   0  0  1  0  0  0
   -4.4929   -6.8501    0.8086 C   0  0
   -3.8688   -6.2412   -1.5332 C   0  0
   -3.3533   -7.4542   -1.8838 O   0  0
   -4.4519   -5.5426   -2.3506 O   0  0
    2.7685   10.2687   -0.7208 H   0  0
    2.0204    9.5244    0.7001 H   0  0
    1.0795    9.7500   -0.8258 H   0  0
    3.0418    5.9978   -1.8955 H   0  0
    1.7528    3.9085   -1.7040 H   0  0
    0.1916    8.0147    0.6376 H   0  0
   -1.0538    5.9152    0.8843 H   0  0
   -2.7551    0.3120   -1.5675 H   0  0
   -2.4245    1.9944   -1.9603 H   0  0
   -3.0133    1.5399   -0.3339 H   0  0
    2.1675    3.3145    1.1010 H   0  0
    4.1089    1.9344    1.6760 H   0  0
    2.1891   -1.5454    0.0150 H   0  0
   -1.1978   -1.3739   -1.9990 H   0  0
    0.2925   -2.0492   -1.3554 H   0  0
   -2.7441   -3.0694   -1.3941 H   0  0
   -0.1379   -1.5261    1.6964 H   0  0
   -1.3783   -2.8096    3.3719 H   0  0
   -3.2861   -4.2457    2.6976 H   0  0
   -2.5982   -6.0240    0.1758 H   0  0
   -4.2032   -7.8939    0.6538 H   0  0
   -5.5603   -6.7557    0.5781 H   0  0
   -4.3737   -6.6110    1.8706 H   0  0
   -2.7335   -7.7935   -1.2078 H   0  0
  1  2  1  0
  1 39  1  0
  1 40  1  0
  1 41  1  0
  3  2  1  0
  4  3  1  0
  4  5  2  0
  4 42  1  0
  5  8  1  0
  5 43  1  0
  6  3  2  0
  6  7  1  0
  6 44  1  0
  7  8  2  0
  7 45  1  0
  9  8  1  0
  9 10  2  0
  9 11  1  0
 12 11  1  0
 12 25  2  0
 13 12  1  0
 13 46  1  0
 13 47  1  0
 13 48  1  0
 14 11  1  0
 15 14  1  0
 15 49  1  0
 16 15  2  0
 16 17  1  0
 16 50  1  0
 17 18  1  0
 19 18  1  0
 19 20  1  0
 19 21  1  0
 19 22  1  0
 23 17  2  0
 23 24  1  0
 23 51  1  0
 24 14  2  0
 25 24  1  0
 26 25  1  0
 26 27  1  0
 26 52  1  0
 26 53  1  0
 28 27  1  0
 28 32  2  0
 28 54  1  0
 29 27  2  0
 29 55  1  0
 30 29  1  0
 30 31  2  0
 30 56  1  0
 31 32  1  0
 31 57  1  0
 32 33  1  0
 34 33  1  0
 34 35  1  0
 34 58  1  0
 35 59  1  0
 35 60  1  0
 35 61  1  0
 36 34  1  0
 36 37  1  0
 36 38  2  0
 37 62  1  0
M  END
> <Name>
CHEMBL179330

> <Clean Energy>
77.691803

> <chembl_id>
CHEMBL179330

> <chembl_pref_name>
None

> <efficacy>
0.26

> <Forcefield>
MMFF

> <ForcefieldBase>
MMFF

> <ForcefieldFFML>
<?xml version="1.0" encoding="UTF-8"?>
<!DOCTYPE ffml SYSTEM "Ffml.dtd">
<ffml version="1.0">
<forcefield name="MMFF" derivedFrom="MMFF" base="MMFF">
<atomTypes>
<atomType
name="C100"
element="C"
mass="12.011"
annotation=""/>
<atomType
name="O101"
element="O"
mass="16"
annotation=""/>
<atomType
name="N102"
element="N"
mass="14.007"
annotation=""/>
<atomType
name="F103"
element="F"
mass="18.998"
annotation=""/>
<atomType
name="H104"
element="H"
mass="1.008"
annotation=""/>
</atomTypes>
<parameters>
</parameters>
</forcefield>
</ffml>

> <Initial Potential Energy>
938.88001

> <Initial RMS Gradient>
340.18978

> <Minimization Criteria>
STEEPD> Minimization exiting with gradient tolerance ( 3.0000000) satisfied.

> <CHARMm Energy>
134.59397

> <Potential Energy>
134.59397

> <RMS Gradient>
0.07075

> <Bond Energy>
9.75624

> <Angle Energy>
26.14928

> <STRBend>
-0.1905

> <Dihedral Energy>
15.23677

> <OOPLane>
0.18704

> <Van der Waals Energy>
70.17292

> <Electrostatic Energy>
13.28222

> <Hydrogen Bond Energy>
0

> <Solvation Free Energy>
0

> <HasGasteigerCharges>
true

> <REMARK99>
REMARK  99  MacroMolecule created from Mol2 file
REMARK  99  CHEMBL179330
REMARK  99  PROTEIN
REMARK  99  GASTEIGER
REMARK  99
REMARK  99

$$$$
CHEMBL3585576
  SciTegic05292516403D

 80 83  0  0  0  0            999 V2000
   -0.8625   -0.5129    1.4774 C   0  0
   -0.1155   -0.4794    0.3052 C   0  0
   -0.7564   -0.3232   -0.9210 C   0  0
   -2.1448   -0.1387   -0.9701 C   0  0
   -2.9116   -0.1380    0.2061 C   0  0
   -2.2457   -0.3226    1.4299 C   0  0
   -4.3746    0.0073    0.1748 C   0  0
   -5.2564   -0.0230   -0.9446 C   0  0
   -6.5181    0.0906   -0.4101 C   0  0
   -6.4097    0.2127    0.9387 O   0  0
   -5.0868    0.1625    1.3044 N   0  0
    1.2187   -0.7631    0.3531 O   0  0
    2.1340    0.3599    0.4631 C   0  0
    3.5362   -0.2835    0.6136 C   0  0
    2.1532    1.2060   -0.8121 C   0  0
    1.8916    1.2122    1.7119 C   0  0
    3.4923   -1.6412    0.6427 O   0  0
    4.5877    0.3353    0.7012 O   0  0
   -7.9044    0.0305   -0.9619 C   0  0  1  0  0  0
   -8.3888   -1.2318   -0.4822 O   0  0
   -8.7791    1.1920   -0.4609 C   0  0
   -8.3185    2.5479   -0.9778 C   0  0
   -9.5222   -1.6950   -1.0719 C   0  0
  -10.0004   -2.8394   -0.4663 N   0  0
  -10.0144   -1.1683   -2.0638 O   0  0
  -11.3796   -3.0257   -0.4409 C   0  0
  -11.7631   -4.3386   -0.2380 N   0  0
  -12.1836   -2.0971   -0.5087 O   0  0
  -12.9979   -4.8096    0.2418 C   0  0
  -13.2046   -6.1892    0.2075 C   0  0
  -14.3816   -6.7464    0.7061 C   0  0
  -15.3594   -5.9162    1.2522 C   0  0
  -15.1563   -4.5334    1.3073 C   0  0
  -13.9782   -3.9840    0.7959 C   0  0
  -16.1779   -3.8273    1.8875 O   0  0
  -15.9574   -2.4317    2.0830 C   0  0
  -14.4397   -8.1077    0.6053 O   0  0
  -15.6303   -8.7281    1.0715 C   0  0
   -9.0982   -3.6982    0.3075 C   0  0
   -8.7301   -4.9865   -0.4065 C   0  0
   -8.7075   -6.1942    0.3100 C   0  0
   -8.3847   -7.3927   -0.3279 C   0  0
   -8.0666   -7.3980   -1.6837 C   0  0
   -8.0627   -6.2037   -2.4010 C   0  0
   -8.3911   -5.0035   -1.7677 C   0  0
   -0.3829   -0.6920    2.4349 H   0  0
   -0.1821   -0.3511   -1.8442 H   0  0
   -2.6133   -0.0100   -1.9424 H   0  0
   -2.8038   -0.3413    2.3649 H   0  0
   -5.0106   -0.1578   -1.9870 H   0  0
    2.9648    1.9418   -0.7958 H   0  0
    1.2146    1.7543   -0.9436 H   0  0
    2.2880    0.5738   -1.6972 H   0  0
    2.6837    1.9567    1.8496 H   0  0
    1.8590    0.5871    2.6115 H   0  0
    0.9404    1.7516    1.6529 H   0  0
    2.5615   -1.9452    0.5571 H   0  0
   -7.8513    0.0214   -2.0583 H   0  0
   -9.8181    1.0388   -0.7745 H   0  0
   -8.8094    1.2068    0.6359 H   0  0
   -9.0083    3.3305   -0.6460 H   0  0
   -8.2932    2.5612   -2.0720 H   0  0
   -7.3216    2.8031   -0.6055 H   0  0
  -11.1123   -5.0381   -0.5694 H   0  0
  -12.4534   -6.8551   -0.2102 H   0  0
  -16.2882   -6.3128    1.6529 H   0  0
  -13.8201   -2.9142    0.8386 H   0  0
  -16.8328   -2.0277    2.6008 H   0  0
  -15.8701   -1.9103    1.1244 H   0  0
  -15.0834   -2.2520    2.7181 H   0  0
  -15.5312   -9.8059    0.9100 H   0  0
  -16.5029   -8.3866    0.5047 H   0  0
  -15.7674   -8.5646    2.1456 H   0  0
   -8.1634   -3.1919    0.5672 H   0  0
   -9.6038   -3.9334    1.2529 H   0  0
   -8.9432   -6.2134    1.3731 H   0  0
   -8.3755   -8.3231    0.2349 H   0  0
   -7.8125   -8.3318   -2.1801 H   0  0
   -7.7995   -6.2058   -3.4565 H   0  0
   -8.3870   -4.0873   -2.3551 H   0  0
  1  2  2  0
  1 46  1  0
  2  3  1  0
  2 12  1  0
  3  4  2  0
  3 47  1  0
  4  5  1  0
  4 48  1  0
  5  6  2  0
  5  7  1  0
  6  1  1  0
  6 49  1  0
  7  8  1  0
  8  9  2  0
  8 50  1  0
  9 10  1  0
  9 19  1  0
 10 11  1  0
 11  7  2  0
 12 13  1  0
 13 14  1  0
 13 15  1  0
 13 16  1  0
 14 17  1  0
 14 18  2  0
 15 51  1  0
 15 52  1  0
 15 53  1  0
 16 54  1  0
 16 55  1  0
 16 56  1  0
 17 57  1  0
 19 20  1  0
 19 21  1  0
 19 58  1  0
 20 23  1  0
 21 22  1  0
 21 59  1  0
 21 60  1  0
 22 61  1  0
 22 62  1  0
 22 63  1  0
 23 24  1  0
 23 25  2  0
 24 26  1  0
 24 39  1  0
 26 27  1  0
 26 28  2  0
 27 29  1  0
 27 64  1  0
 29 30  2  0
 30 31  1  0
 30 65  1  0
 31 32  2  0
 31 37  1  0
 32 33  1  0
 32 66  1  0
 33 34  2  0
 33 35  1  0
 34 29  1  0
 34 67  1  0
 35 36  1  0
 36 68  1  0
 36 69  1  0
 36 70  1  0
 37 38  1  0
 38 71  1  0
 38 72  1  0
 38 73  1  0
 39 40  1  0
 39 74  1  0
 39 75  1  0
 40 41  2  0
 41 42  1  0
 41 76  1  0
 42 43  2  0
 42 77  1  0
 43 44  1  0
 43 78  1  0
 44 45  2  0
 44 79  1  0
 45 40  1  0
 45 80  1  0
M  END
> <Name>
CHEMBL3585576

> <Clean Energy>
75.787003

> <chembl_id>
CHEMBL3585576

> <chembl_pref_name>
None

> <efficacy>
0.3

> <Forcefield>
MMFF

> <ForcefieldBase>
MMFF

> <ForcefieldFFML>
<?xml version="1.0" encoding="UTF-8"?>
<!DOCTYPE ffml SYSTEM "Ffml.dtd">
<ffml version="1.0">
<forcefield name="MMFF" derivedFrom="MMFF" base="MMFF">
<atomTypes>
<atomType
name="C100"
element="C"
mass="12.011"
annotation=""/>
<atomType
name="O101"
element="O"
mass="16"
annotation=""/>
<atomType
name="N102"
element="N"
mass="14.007"
annotation=""/>
<atomType
name="H103"
element="H"
mass="1.008"
annotation=""/>
</atomTypes>
<parameters>
</parameters>
</forcefield>
</ffml>

> <Initial Potential Energy>
174.4816

> <Initial RMS Gradient>
29.05676

> <Minimization Criteria>
STEEPD> Minimization exiting with gradient tolerance ( 3.0000000) satisfied.

> <CHARMm Energy>
-24.13295

> <Potential Energy>
-24.13295

> <RMS Gradient>
0.07134

> <Bond Energy>
8.09149

> <Angle Energy>
28.0586

> <STRBend>
0.6097

> <Dihedral Energy>
18.31293

> <OOPLane>
0.4989

> <Van der Waals Energy>
92.1497

> <Electrostatic Energy>
-171.85428

> <Hydrogen Bond Energy>
0

> <Solvation Free Energy>
0

> <HasGasteigerCharges>
true

> <REMARK99>
REMARK  99  MacroMolecule created from Mol2 file
REMARK  99  CHEMBL3585576
REMARK  99  PROTEIN
REMARK  99  GASTEIGER
REMARK  99
REMARK  99

$$$$
CHEMBL2331786
  SciTegic05292516403D

 47 49  0  0  0  0            999 V2000
   16.2760   -6.3797   -0.1836 C   0  0
   14.8850   -5.8962   -0.0753 C   0  0
   13.8168   -6.6525   -0.5680 C   0  0
   12.5045   -6.1769   -0.4425 C   0  0
   12.2571   -4.9925    0.2449 C   0  0
   13.3210   -4.2796    0.7919 C   0  0
   14.6362   -4.7057    0.6144 C   0  0
   16.5629   -7.5060    0.1992 O   0  0
   17.1800   -5.4742   -0.6963 N   0  0
   18.5870   -5.7940   -0.8329 C   0  0
   19.3457   -5.5265    0.4541 C   0  0
   12.9130   -1.6659    0.5493 S   0  0
   13.0698   -3.0684    1.4826 N   0  0
   11.1840   -1.6621    0.1564 C   0  0
   10.6636   -1.8108   -1.1306 C   0  0
    9.2741   -1.7381   -1.3232 C   0  0
    8.4176   -1.5310   -0.2427 C   0  0
    8.9323   -1.4073    1.0425 C   0  0
   10.3106   -1.4606    1.2419 C   0  0
    6.7194   -1.4248   -0.4988 Cl  0  0
   11.5978   -2.1197   -2.5444 Cl  0  0
   14.0487   -7.8565   -1.1987 O   0  0
   13.7394   -9.3006    0.7204 C   0  0
   13.4377   -8.9239   -0.5859 C   0  0
   12.4678   -9.6310   -1.2876 C   0  0
   11.7862  -10.6450   -0.6298 C   0  0
   12.1219  -10.9303    0.6878 C   0  0
   13.0935  -10.2895    1.3801 N   0  0
   10.5392  -11.5146   -1.4262 Cl  0  0
   13.7477   -1.7911   -0.6215 O   0  0
   13.1225   -0.5829    1.4871 O   0  0
   11.6700   -6.7354   -0.8586 H   0  0
   11.2326   -4.6554    0.3713 H   0  0
   15.4607   -4.1325    1.0294 H   0  0
   16.8506   -4.5754   -1.0304 H   0  0
   18.6925   -6.8448   -1.1228 H   0  0
   18.9845   -5.1725   -1.6414 H   0  0
   20.4089   -5.7499    0.3240 H   0  0
   18.9637   -6.1434    1.2741 H   0  0
   19.2486   -4.4776    0.7538 H   0  0
   13.6326   -2.8732    2.3120 H   0  0
    8.8537   -1.8389   -2.3227 H   0  0
    8.2731   -1.2605    1.8933 H   0  0
   10.7021   -1.3406    2.2517 H   0  0
   14.5164   -8.7968    1.2887 H   0  0
   12.2309   -9.3687   -2.3132 H   0  0
   11.6063  -11.7058    1.2443 H   0  0
  1  2  1  0
  1  8  2  0
  1  9  1  0
  2  3  1  0
  2  7  2  0
  3  4  2  0
  3 22  1  0
  4  5  1  0
  4 32  1  0
  5  6  2  0
  5 33  1  0
  6  7  1  0
  6 13  1  0
  7 34  1  0
  9 10  1  0
  9 35  1  0
 10 11  1  0
 10 36  1  0
 10 37  1  0
 11 38  1  0
 11 39  1  0
 11 40  1  0
 12 13  1  0
 12 14  1  0
 12 30  2  0
 12 31  2  0
 13 41  1  0
 14 15  1  0
 14 19  2  0
 15 16  2  0
 15 21  1  0
 16 17  1  0
 16 42  1  0
 17 18  2  0
 17 20  1  0
 18 19  1  0
 18 43  1  0
 19 44  1  0
 22 24  1  0
 23 24  1  0
 23 28  2  0
 23 45  1  0
 24 25  2  0
 25 26  1  0
 25 46  1  0
 26 27  2  0
 26 29  1  0
 27 28  1  0
 27 47  1  0
M  END
> <Name>
CHEMBL2331786

> <Clean Energy>
31.472799

> <chembl_id>
CHEMBL2331786

> <chembl_pref_name>
None

> <efficacy>
0.25

> <Forcefield>
MMFF

> <ForcefieldBase>
MMFF

> <ForcefieldFFML>
<?xml version="1.0" encoding="UTF-8"?>
<!DOCTYPE ffml SYSTEM "Ffml.dtd">
<ffml version="1.0">
<forcefield name="MMFF" derivedFrom="MMFF" base="MMFF">
<atomTypes>
<atomType
name="C100"
element="C"
mass="12.011"
annotation=""/>
<atomType
name="O101"
element="O"
mass="16"
annotation=""/>
<atomType
name="N102"
element="N"
mass="14.007"
annotation=""/>
<atomType
name="S103"
element="S"
mass="32.066"
annotation=""/>
<atomType
name="Cl104"
element="Cl"
mass="35.453"
annotation=""/>
<atomType
name="H105"
element="H"
mass="1.008"
annotation=""/>
</atomTypes>
<parameters>
</parameters>
</forcefield>
</ffml>

> <Initial Potential Energy>
716.46111

> <Initial RMS Gradient>
374.51027

> <Minimization Criteria>
CONJUG> Minimization exiting with gradient tolerance ( 0.0100000) satisfied.

> <CHARMm Energy>
-1.91116

> <Potential Energy>
-1.91116

> <RMS Gradient>
0.00927

> <Bond Energy>
3.74025

> <Angle Energy>
12.00112

> <STRBend>
1.10556

> <Dihedral Energy>
14.71225

> <OOPLane>
0.09286

> <Van der Waals Energy>
55.84712

> <Electrostatic Energy>
-89.41033

> <Hydrogen Bond Energy>
0

> <Solvation Free Energy>
0

> <HasGasteigerCharges>
true

> <REMARK99>
REMARK  99  MacroMolecule created from Mol2 file
REMARK  99  CHEMBL2331786
REMARK  99  PROTEIN
REMARK  99  GASTEIGER
REMARK  99
REMARK  99

$$$$
CHEMBL3397554
  SciTegic05292516403D

 57 58  0  0  0  0            999 V2000
    1.6332   -3.2532    1.5748 C   0  0
    2.1555   -3.2159    0.1286 C   0  0  1  0  0  0
    2.7538   -1.8252   -0.1664 C   0  0
    2.1989   -3.8005    2.5110 O   0  0
    0.4400   -2.6323    1.7505 O   0  0
    1.7361   -0.7239   -0.3368 C   0  0
    1.5250    0.2059    0.6909 C   0  0
    0.5607    1.2026    0.5524 C   0  0
   -0.1960    1.2826   -0.6146 C   0  0
    0.0115    0.3699   -1.6465 C   0  0
    0.9751   -0.6300   -1.5099 C   0  0
    3.2307   -4.1323   -0.1043 O   0  0
    3.0016   -5.4774   -0.1213 C   0  0
    4.1673   -6.2450   -0.2149 C   0  0
    4.1100   -7.6398   -0.2268 C   0  0
    2.8734   -8.2821   -0.1527 C   0  0
    1.7015   -7.5253   -0.0722 C   0  0
    1.7659   -6.1220   -0.0554 C   0  0
    2.8512   -9.7580   -0.1490 C   0  0
    1.7581  -10.4550   -0.1372 N   0  0
    2.1025  -11.8197   -0.1279 O   0  0
    0.9049  -12.5980   -0.1648 C   0  0
    1.2799  -14.0695   -0.0536 C   0  0
    0.0463  -14.9661   -0.1190 C   0  0
    0.4213  -16.4405    0.0297 C   0  0
   -0.8143  -17.3360   -0.0648 C   0  0
   -0.4473  -18.8092    0.1040 C   0  0
   -1.6726  -19.7023   -0.0048 C   0  0
    1.3357   -3.4369   -0.5654 H   0  0
    3.4697   -1.5538    0.6217 H   0  0
    3.3584   -1.8722   -1.0831 H   0  0
    0.1023   -2.1281    0.9822 H   0  0
    2.1020    0.1483    1.6128 H   0  0
    0.3999    1.9212    1.3533 H   0  0
   -0.9435    2.0652   -0.7233 H   0  0
   -0.5750    0.4417   -2.5596 H   0  0
    1.1321   -1.3285   -2.3300 H   0  0
    5.1343   -5.7490   -0.2631 H   0  0
    5.0339   -8.2088   -0.2872 H   0  0
    0.7356   -8.0221   -0.0092 H   0  0
    0.8328   -5.5752    0.0221 H   0  0
    3.8345  -10.2641   -0.1615 H   0  0
    0.2557  -12.3060    0.6688 H   0  0
    0.3829  -12.4039   -1.1088 H   0  0
    1.9816  -14.3291   -0.8560 H   0  0
    1.8225  -14.2345    0.8856 H   0  0
   -0.6566  -14.6848    0.6747 H   0  0
   -0.4682  -14.8111   -1.0751 H   0  0
    1.1382  -16.7195   -0.7523 H   0  0
    0.9173  -16.5971    0.9956 H   0  0
   -1.5387  -17.0472    0.7065 H   0  0
   -1.3018  -17.1870   -1.0359 H   0  0
    0.2811  -19.1022   -0.6608 H   0  0
    0.0264  -18.9649    1.0802 H   0  0
   -1.3893  -20.7515    0.1234 H   0  0
   -2.1493  -19.5962   -0.9846 H   0  0
   -2.4098  -19.4524    0.7649 H   0  0
  1  2  1  0
  1  4  2  0
  1  5  1  0
  2  3  1  0
  2 12  1  0
  2 29  1  0
  3  6  1  0
  3 30  1  0
  3 31  1  0
  5 32  1  0
  6  7  1  0
  6 11  2  0
  7  8  2  0
  7 33  1  0
  8  9  1  0
  8 34  1  0
  9 10  2  0
  9 35  1  0
 10 11  1  0
 10 36  1  0
 11 37  1  0
 12 13  1  0
 13 14  1  0
 13 18  2  0
 14 15  2  0
 14 38  1  0
 15 16  1  0
 15 39  1  0
 16 17  2  0
 16 19  1  0
 17 18  1  0
 17 40  1  0
 18 41  1  0
 19 20  2  0
 19 42  1  0
 20 21  1  0
 21 22  1  0
 22 23  1  0
 22 43  1  0
 22 44  1  0
 23 24  1  0
 23 45  1  0
 23 46  1  0
 24 25  1  0
 24 47  1  0
 24 48  1  0
 25 26  1  0
 25 49  1  0
 25 50  1  0
 26 27  1  0
 26 51  1  0
 26 52  1  0
 27 28  1  0
 27 53  1  0
 27 54  1  0
 28 55  1  0
 28 56  1  0
 28 57  1  0
M  END
> <Name>
CHEMBL3397554

> <Clean Energy>
12.1651

> <chembl_id>
CHEMBL3397554

> <chembl_pref_name>
None

> <efficacy>
0.19

> <Forcefield>
MMFF

> <ForcefieldBase>
MMFF

> <ForcefieldFFML>
<?xml version="1.0" encoding="UTF-8"?>
<!DOCTYPE ffml SYSTEM "Ffml.dtd">
<ffml version="1.0">
<forcefield name="MMFF" derivedFrom="MMFF" base="MMFF">
<atomTypes>
<atomType
name="C100"
element="C"
mass="12.011"
annotation=""/>
<atomType
name="O101"
element="O"
mass="16"
annotation=""/>
<atomType
name="N102"
element="N"
mass="14.007"
annotation=""/>
<atomType
name="H103"
element="H"
mass="1.008"
annotation=""/>
</atomTypes>
<parameters>
</parameters>
</forcefield>
</ffml>

> <Initial Potential Energy>
125.70337

> <Initial RMS Gradient>
24.35816

> <Minimization Criteria>
STEEPD> Minimization exiting with gradient tolerance ( 3.0000000) satisfied.

> <CHARMm Energy>
70.67315

> <Potential Energy>
70.67315

> <RMS Gradient>
0.09988

> <Bond Energy>
4.71293

> <Angle Energy>
14.74729

> <STRBend>
0.35767

> <Dihedral Energy>
-12.5251

> <OOPLane>
0.01501

> <Van der Waals Energy>
47.05417

> <Electrostatic Energy>
16.31119

> <Hydrogen Bond Energy>
0

> <Solvation Free Energy>
0

> <HasGasteigerCharges>
true

> <REMARK99>
REMARK  99  MacroMolecule created from Mol2 file
REMARK  99  CHEMBL3397554
REMARK  99  PROTEIN
REMARK  99  GASTEIGER
REMARK  99
REMARK  99

$$$$
CHEMBL2204692
  SciTegic05292516403D

 53 55  0  0  0  0            999 V2000
   30.1032  -25.9024   -0.3649 C   0  0
   28.8568  -25.0687    0.0429 C   0  0
   30.1131  -26.8243   -1.1705 O   0  0
   31.2631  -25.5304    0.2372 O   0  0
   27.7898  -25.6741   -0.7032 O   0  0
   26.4684  -25.3915   -0.5716 C   0  0
   25.8874  -24.3304    0.1134 C   0  0
   24.4950  -24.1791    0.1420 C   0  0
   23.6642  -25.0868   -0.5228 C   0  0
   24.2489  -26.1557   -1.2100 C   0  0
   25.6372  -26.2975   -1.2371 C   0  0
   22.1644  -24.9382   -0.4927 C   0  0
   21.6409  -25.9536    0.3579 O   0  0
   20.3066  -26.2077    0.2278 C   0  0
   19.3676  -25.3396   -0.3256 C   0  0
   18.0299  -25.7329   -0.4271 C   0  0
   17.6109  -26.9851    0.0400 C   0  0
   18.5622  -27.8424    0.6059 C   0  0
   19.8976  -27.4501    0.7088 C   0  0
   16.2086  -27.3808   -0.1484 C   0  0
   15.5478  -28.2280    0.6555 C   0  0
   14.1681  -28.6388    0.3889 C   0  0
   13.1462  -27.7038    0.1880 C   0  0
   11.8413  -28.1317   -0.0586 C   0  0
   11.5491  -29.4945   -0.1017 C   0  0
   12.5619  -30.4298    0.1072 C   0  0
   13.8661  -30.0043    0.3572 C   0  0
   28.6730  -25.2299    1.5570 C   0  0
   29.1116  -23.6295   -0.4177 C   0  0
   31.2316  -24.7711    0.8457 H   0  0
   26.4725  -23.5902    0.6415 H   0  0
   24.0685  -23.3434    0.6926 H   0  0
   23.6249  -26.8868   -1.7208 H   0  0
   26.0801  -27.1319   -1.7779 H   0  0
   21.8894  -23.9506   -0.1030 H   0  0
   21.7900  -25.0321   -1.5208 H   0  0
   19.6424  -24.3540   -0.6871 H   0  0
   17.3145  -25.0464   -0.8746 H   0  0
   18.2816  -28.8326    0.9560 H   0  0
   20.6308  -28.1263    1.1428 H   0  0
   15.7096  -26.9536   -1.0163 H   0  0
   16.0121  -28.6795    1.5274 H   0  0
   13.3601  -26.6385    0.2278 H   0  0
   11.0506  -27.4024   -0.2136 H   0  0
   10.5320  -29.8275   -0.2946 H   0  0
   12.3377  -31.4923    0.0754 H   0  0
   14.6506  -30.7421    0.5118 H   0  0
   27.8182  -24.6721    1.9440 H   0  0
   29.5481  -24.8894    2.1194 H   0  0
   28.5011  -26.2825    1.8108 H   0  0
   28.2754  -22.9604   -0.2094 H   0  0
   29.2684  -23.5975   -1.5026 H   0  0
   29.9953  -23.1949    0.0603 H   0  0
  1  2  1  0
  1  3  2  0
  1  4  1  0
  2  5  1  0
  2 28  1  0
  2 29  1  0
  4 30  1  0
  5  6  1  0
  6  7  1  0
  6 11  2  0
  7  8  2  0
  7 31  1  0
  8  9  1  0
  8 32  1  0
  9 10  2  0
  9 12  1  0
 10 11  1  0
 10 33  1  0
 11 34  1  0
 12 13  1  0
 12 35  1  0
 12 36  1  0
 13 14  1  0
 14 15  1  0
 14 19  2  0
 15 16  2  0
 15 37  1  0
 16 17  1  0
 16 38  1  0
 17 18  2  0
 17 20  1  0
 18 19  1  0
 18 39  1  0
 19 40  1  0
 20 21  2  0
 20 41  1  0
 21 22  1  0
 21 42  1  0
 22 23  1  0
 22 27  2  0
 23 24  2  0
 23 43  1  0
 24 25  1  0
 24 44  1  0
 25 26  2  0
 25 45  1  0
 26 27  1  0
 26 46  1  0
 27 47  1  0
 28 48  1  0
 28 49  1  0
 28 50  1  0
 29 51  1  0
 29 52  1  0
 29 53  1  0
M  END
> <Name>
CHEMBL2204692

> <Clean Energy>
16.9713

> <chembl_id>
CHEMBL2204692

> <chembl_pref_name>
None

> <efficacy>
0.341880342

> <Forcefield>
MMFF

> <ForcefieldBase>
MMFF

> <ForcefieldFFML>
<?xml version="1.0" encoding="UTF-8"?>
<!DOCTYPE ffml SYSTEM "Ffml.dtd">
<ffml version="1.0">
<forcefield name="MMFF" derivedFrom="MMFF" base="MMFF">
<atomTypes>
<atomType
name="C100"
element="C"
mass="12.011"
annotation=""/>
<atomType
name="O101"
element="O"
mass="16"
annotation=""/>
<atomType
name="H102"
element="H"
mass="1.008"
annotation=""/>
</atomTypes>
<parameters>
</parameters>
</forcefield>
</ffml>

> <Initial Potential Energy>
172.31035

> <Initial RMS Gradient>
29.87395

> <Minimization Criteria>
STEEPD> Minimization exiting with gradient tolerance ( 3.0000000) satisfied.

> <CHARMm Energy>
101.02015

> <Potential Energy>
101.02015

> <RMS Gradient>
0.06083

> <Bond Energy>
5.8972

> <Angle Energy>
23.68851

> <STRBend>
-0.02798

> <Dihedral Energy>
6.26525

> <OOPLane>
0.03633

> <Van der Waals Energy>
64.82544

> <Electrostatic Energy>
0.33539

> <Hydrogen Bond Energy>
0

> <Solvation Free Energy>
0

> <HasGasteigerCharges>
true

> <REMARK99>
REMARK  99  MacroMolecule created from Mol2 file
REMARK  99  CHEMBL2204692
REMARK  99  PROTEIN
REMARK  99  GASTEIGER
REMARK  99
REMARK  99

$$$$
CHEMBL2260197
  SciTegic05292516403D

 47 50  0  0  0  0            999 V2000
    7.9517    1.6825   -0.3804 C   0  0
    7.6710    0.5490   -1.1476 C   0  0
    8.5416   -0.5433   -1.1732 C   0  0
    9.1205    1.7724    0.4011 C   0  0
   10.0040    0.6742    0.3755 C   0  0
    9.7014   -0.4477   -0.3970 C   0  0
   10.7609   -1.2984   -0.1826 N   0  0
   11.6358   -0.6753    0.6668 C   0  0
   11.2090    0.5142    1.0231 N   0  0
   11.0135   -2.5712   -0.8435 C   0  0
    9.9873   -3.6472   -0.5699 C   0  0
    9.4490   -3.8689    0.7047 C   0  0
    8.5634   -4.9310    0.9320 C   0  0
    8.2105   -5.8127   -0.1002 C   0  0
    8.7460   -5.5869   -1.3752 C   0  0
    9.6254   -4.5235   -1.6057 C   0  0
    7.3088   -6.9511    0.1434 C   0  0
    5.9199   -6.7233    0.1109 C   0  0
    5.0070   -7.7665    0.2908 C   0  0
    5.4605   -9.0648    0.5061 C   0  0
    6.8314   -9.3185    0.5507 C   0  0
    7.7598   -8.2721    0.3720 C   0  0
    9.2157   -8.5745    0.4696 C   0  0
    9.4610   -9.8231   -0.0182 O   0  0
   10.0557   -7.8061    0.9089 O   0  0
   10.8476  -10.1626   -0.0077 C   0  0
    9.3757    3.0066    1.2129 C   0  0
    7.2476    2.5127   -0.3873 H   0  0
    6.7571    0.5164   -1.7369 H   0  0
    8.3155   -1.4228   -1.7662 H   0  0
   12.5693   -1.1229    0.9836 H   0  0
   11.0664   -2.3446   -1.9155 H   0  0
   11.9997   -2.9315   -0.5282 H   0  0
    9.7185   -3.2289    1.5430 H   0  0
    8.1732   -5.0862    1.9361 H   0  0
    8.4932   -6.2525   -2.1981 H   0  0
   10.0386   -4.3976   -2.6046 H   0  0
    5.5409   -5.7169   -0.0643 H   0  0
    3.9412   -7.5554    0.2621 H   0  0
    4.7496   -9.8754    0.6473 H   0  0
    7.1738  -10.3334    0.7394 H   0  0
   11.2318  -10.1781    1.0171 H   0  0
   11.4204   -9.4662   -0.6285 H   0  0
   10.9526  -11.1659   -0.4300 H   0  0
   10.3156    2.9349    1.7689 H   0  0
    8.5667    3.1561    1.9352 H   0  0
    9.4362    3.8819    0.5583 H   0  0
  1  2  2  0
  1 28  1  0
  2  3  1  0
  2 29  1  0
  3  6  2  0
  3 30  1  0
  4  1  1  0
  4 27  1  0
  5  4  2  0
  5  6  1  0
  6  7  1  0
  7  8  1  0
  7 10  1  0
  8  9  2  0
  8 31  1  0
  9  5  1  0
 10 11  1  0
 10 32  1  0
 10 33  1  0
 11 12  2  0
 12 13  1  0
 12 34  1  0
 13 14  2  0
 13 35  1  0
 14 15  1  0
 14 17  1  0
 15 16  2  0
 15 36  1  0
 16 11  1  0
 16 37  1  0
 17 18  2  0
 18 19  1  0
 18 38  1  0
 19 20  2  0
 19 39  1  0
 20 21  1  0
 20 40  1  0
 21 22  2  0
 21 41  1  0
 22 17  1  0
 22 23  1  0
 23 24  1  0
 23 25  2  0
 24 26  1  0
 26 42  1  0
 26 43  1  0
 26 44  1  0
 27 45  1  0
 27 46  1  0
 27 47  1  0
M  END
> <Name>
CHEMBL2260197

> <Clean Energy>
55.626598

> <chembl_id>
CHEMBL2260197

> <chembl_pref_name>
None

> <efficacy>
0.047

> <Forcefield>
MMFF

> <ForcefieldBase>
MMFF

> <ForcefieldFFML>
<?xml version="1.0" encoding="UTF-8"?>
<!DOCTYPE ffml SYSTEM "Ffml.dtd">
<ffml version="1.0">
<forcefield name="MMFF" derivedFrom="MMFF" base="MMFF">
<atomTypes>
<atomType
name="C100"
element="C"
mass="12.011"
annotation=""/>
<atomType
name="N101"
element="N"
mass="14.007"
annotation=""/>
<atomType
name="O102"
element="O"
mass="16"
annotation=""/>
<atomType
name="H103"
element="H"
mass="1.008"
annotation=""/>
</atomTypes>
<parameters>
</parameters>
</forcefield>
</ffml>

> <Initial Potential Energy>
510.32853

> <Initial RMS Gradient>
178.78468

> <Minimization Criteria>
CONJUG> Minimization exiting with gradient tolerance ( 0.0100000) satisfied.

> <CHARMm Energy>
86.69098

> <Potential Energy>
86.69098

> <RMS Gradient>
0.00944

> <Bond Energy>
6.8801

> <Angle Energy>
6.77709

> <STRBend>
-0.23144

> <Dihedral Energy>
10.95697

> <OOPLane>
0.09138

> <Van der Waals Energy>
54.21328

> <Electrostatic Energy>
8.00359

> <Hydrogen Bond Energy>
0

> <Solvation Free Energy>
0

> <HasGasteigerCharges>
true

> <REMARK99>
REMARK  99  MacroMolecule created from Mol2 file
REMARK  99  CHEMBL2260197
REMARK  99  PROTEIN
REMARK  99  GASTEIGER
REMARK  99
REMARK  99

$$$$
CHEMBL583300
  SciTegic05292516403D

 45 47  0  0  0  0            999 V2000
   16.3730    1.0337    0.3583 C   0  0
   17.4683    0.7515   -0.4725 C   0  0
   18.7594    1.2057   -0.1558 C   0  0
   18.9794    1.9498    1.0009 C   0  0
   17.8845    2.2618    1.8146 C   0  0
   16.5946    1.8106    1.5003 C   0  0
   20.1853    2.4103    1.4591 O   0  0
   21.3889    2.1206    0.7105 C   0  0  1  0  0  0
   22.3995    3.1915    1.1305 C   0  0
   21.9309    0.7378    1.1030 C   0  0
   23.0349    0.2220    0.2106 C   0  0
   24.3806    0.4321    0.5452 C   0  0
   25.4010   -0.0420   -0.2815 C   0  0
   25.0886   -0.7312   -1.4513 C   0  0
   23.7549   -0.9439   -1.7954 C   0  0
   22.7326   -0.4696   -0.9697 C   0  0
   22.1730    3.6999    2.3700 O   0  0
   23.3594    3.5460    0.4607 O   0  0
   15.0084    0.4350    0.0691 C   0  0
   13.8683    1.3688   -0.2890 C   0  0
   14.0603    2.5514   -1.0130 C   0  0
   12.9672    3.3318   -1.4093 C   0  0
   11.6661    2.9327   -1.1045 C   0  0
   11.4569    1.7544   -0.3910 C   0  0
   12.5484    0.9795    0.0118 C   0  0
   17.3301    0.1512   -1.3703 H   0  0
   19.5633    0.9384   -0.8328 H   0  0
   18.0301    2.8508    2.7172 H   0  0
   15.7672    2.0528    2.1655 H   0  0
   21.2196    2.2532   -0.3639 H   0  0
   22.2836    0.7544    2.1437 H   0  0
   21.1195   -0.0012    1.1097 H   0  0
   24.6442    0.9801    1.4475 H   0  0
   26.4422    0.1325   -0.0164 H   0  0
   25.8875   -1.0971   -2.0934 H   0  0
   23.5058   -1.4773   -2.7089 H   0  0
   21.6991   -0.6509   -1.2552 H   0  0
   21.3152    3.3650    2.7098 H   0  0
   15.0979   -0.2908   -0.7503 H   0  0
   14.7293   -0.1508    0.9559 H   0  0
   15.0625    2.8745   -1.2878 H   0  0
   13.1504    4.2465   -1.9669 H   0  0
   10.8108    3.5267   -1.4287 H   0  0
   10.4390    1.4348   -0.1643 H   0  0
   12.3743    0.0541    0.5556 H   0  0
  1  2  2  0
  1 19  1  0
  2  3  1  0
  2 26  1  0
  3  4  2  0
  3 27  1  0
  4  5  1  0
  4  7  1  0
  5  6  2  0
  5 28  1  0
  6  1  1  0
  6 29  1  0
  7  8  1  0
  8  9  1  0
  8 10  1  0
  8 30  1  0
  9 17  1  0
  9 18  2  0
 10 11  1  0
 10 31  1  0
 10 32  1  0
 11 12  2  0
 12 13  1  0
 12 33  1  0
 13 14  2  0
 13 34  1  0
 14 15  1  0
 14 35  1  0
 15 16  2  0
 15 36  1  0
 16 11  1  0
 16 37  1  0
 17 38  1  0
 19 20  1  0
 19 39  1  0
 19 40  1  0
 20 21  2  0
 21 22  1  0
 21 41  1  0
 22 23  2  0
 22 42  1  0
 23 24  1  0
 23 43  1  0
 24 25  2  0
 24 44  1  0
 25 20  1  0
 25 45  1  0
M  END
> <Name>
CHEMBL583300

> <Clean Energy>
24.582701

> <chembl_id>
CHEMBL583300

> <chembl_pref_name>
None

> <efficacy>
0.21

> <Forcefield>
MMFF

> <ForcefieldBase>
MMFF

> <ForcefieldFFML>
<?xml version="1.0" encoding="UTF-8"?>
<!DOCTYPE ffml SYSTEM "Ffml.dtd">
<ffml version="1.0">
<forcefield name="MMFF" derivedFrom="MMFF" base="MMFF">
<atomTypes>
<atomType
name="C100"
element="C"
mass="12.011"
annotation=""/>
<atomType
name="O101"
element="O"
mass="16"
annotation=""/>
<atomType
name="H102"
element="H"
mass="1.008"
annotation=""/>
</atomTypes>
<parameters>
</parameters>
</forcefield>
</ffml>

> <Initial Potential Energy>
157.19404

> <Initial RMS Gradient>
31.5017

> <Minimization Criteria>
CONJUG> Minimization exiting with gradient tolerance ( 0.0100000) satisfied.

> <CHARMm Energy>
74.60631

> <Potential Energy>
74.60631

> <RMS Gradient>
0.00992

> <Bond Energy>
6.33081

> <Angle Energy>
12.07661

> <STRBend>
0.45255

> <Dihedral Energy>
1.20401

> <OOPLane>
0.15031

> <Van der Waals Energy>
52.82533

> <Electrostatic Energy>
1.5667

> <Hydrogen Bond Energy>
0

> <Solvation Free Energy>
0

> <HasGasteigerCharges>
true

> <REMARK99>
REMARK  99  MacroMolecule created from Mol2 file
REMARK  99  CHEMBL583300
REMARK  99  PROTEIN
REMARK  99  GASTEIGER
REMARK  99
REMARK  99

$$$$
CHEMBL183213
  SciTegic05292516403D

 43 45  0  0  0  0            999 V2000
    9.6093   -0.9564   -0.5382 C   0  0
    9.3853   -2.4047   -0.3280 C   0  0
    8.5489   -0.1237   -0.5532 C   0  0
    6.9634   -1.9558   -0.2571 C   0  0
    7.1903   -0.6411   -0.4160 C   0  0
    8.0837   -2.8422   -0.1994 O   0  0
   10.9672   -0.5263   -0.7136 C   0  0
   12.0553   -0.1357   -0.8409 N   0  0
   -0.4897   -5.0682    0.3774 N   0  0
    5.6117   -2.6062   -0.1069 C   0  0
   10.3349   -3.1838   -0.2685 O   0  0
    0.6046   -4.1547   -0.0118 C   0  0
    8.7051    1.6050   -0.8297 S   0  0
    1.8907   -4.6434    0.4229 O   0  0
   -2.7510   -6.7551   -0.3027 O   0  0
    5.4802   -3.8632    0.5038 C   0  0
    4.4094   -2.0305   -0.5709 C   0  0
    3.0330   -3.9091    0.1992 C   0  0
    4.2205   -4.4948    0.6554 C   0  0
    3.1412   -2.6674   -0.4208 C   0  0
   -0.3240   -6.3892   -0.2641 C   0  0
   -1.8098   -4.5157    0.0057 C   0  0
   -2.9371   -5.4962    0.3573 C   0  0
   -1.4915   -7.3261    0.0826 C   0  0
    9.3829    2.1637    0.7565 C   0  0
    6.3718    0.0724   -0.4458 H   0  0
    0.6246   -4.0139   -1.1001 H   0  0
    0.4360   -3.1842    0.4703 H   0  0
    6.3573   -4.3836    0.8862 H   0  0
    4.4251   -1.0674   -1.0779 H   0  0
    4.1773   -5.4673    1.1436 H   0  0
    2.2647   -2.1551   -0.8061 H   0  0
   -0.2762   -6.2712   -1.3545 H   0  0
    0.6079   -6.8603    0.0675 H   0  0
   -1.9816   -3.5726    0.5368 H   0  0
   -1.8378   -4.3095   -1.0722 H   0  0
   -3.8979   -5.0893    0.0261 H   0  0
   -3.0012   -5.6600    1.4399 H   0  0
   -1.5125   -7.5558    1.1549 H   0  0
   -1.3800   -8.2719   -0.4573 H   0  0
    9.4450    3.2553    0.7523 H   0  0
   10.3852    1.7630    0.9237 H   0  0
    8.7296    1.8566    1.5779 H   0  0
  2  1  1  0
  3  1  2  0
  4  5  2  0
  4  6  1  0
  5  3  1  0
  5 26  1  0
  6  2  1  0
  7  1  1  0
  8  7  3  0
  9 12  1  0
 10  4  1  0
 11  2  2  0
 12 14  1  0
 12 27  1  0
 12 28  1  0
 13  3  1  0
 14 18  1  0
 15 23  1  0
 16 10  1  0
 16 29  1  0
 17 10  2  0
 17 30  1  0
 18 20  2  0
 19 16  2  0
 19 18  1  0
 19 31  1  0
 20 17  1  0
 20 32  1  0
 21  9  1  0
 21 33  1  0
 21 34  1  0
 22  9  1  0
 22 35  1  0
 22 36  1  0
 23 22  1  0
 23 37  1  0
 23 38  1  0
 24 15  1  0
 24 21  1  0
 24 39  1  0
 24 40  1  0
 25 13  1  0
 25 41  1  0
 25 42  1  0
 25 43  1  0
M  END
> <Name>
CHEMBL183213

> <Clean Energy>
37.218498

> <chembl_id>
CHEMBL183213

> <chembl_pref_name>
None

> <efficacy>
0.05

> <Forcefield>
MMFF

> <ForcefieldBase>
MMFF

> <ForcefieldFFML>
<?xml version="1.0" encoding="UTF-8"?>
<!DOCTYPE ffml SYSTEM "Ffml.dtd">
<ffml version="1.0">
<forcefield name="MMFF" derivedFrom="MMFF" base="MMFF">
<atomTypes>
<atomType
name="C100"
element="C"
mass="12.011"
annotation=""/>
<atomType
name="O101"
element="O"
mass="16"
annotation=""/>
<atomType
name="N102"
element="N"
mass="14.007"
annotation=""/>
<atomType
name="S103"
element="S"
mass="32.066"
annotation=""/>
<atomType
name="H104"
element="H"
mass="1.008"
annotation=""/>
</atomTypes>
<parameters>
</parameters>
</forcefield>
</ffml>

> <Initial Potential Energy>
177.01737

> <Initial RMS Gradient>
22.53478

> <Minimization Criteria>
CONJUG> Minimization exiting with gradient tolerance ( 0.0100000) satisfied.

> <CHARMm Energy>
67.33529

> <Potential Energy>
67.33529

> <RMS Gradient>
0.00911

> <Bond Energy>
8.33788

> <Angle Energy>
25.22336

> <STRBend>
0.48599

> <Dihedral Energy>
-2.42785

> <OOPLane>
0.0155

> <Van der Waals Energy>
43.75944

> <Electrostatic Energy>
-8.05902

> <Hydrogen Bond Energy>
0

> <Solvation Free Energy>
0

> <HasGasteigerCharges>
true

> <REMARK99>
REMARK  99  MacroMolecule created from Mol2 file
REMARK  99  CHEMBL183213
REMARK  99  PROTEIN
REMARK  99  GASTEIGER
REMARK  99
REMARK  99

$$$$
CHEMBL4576586
  SciTegic05292516403D

 54 57  0  0  0  0            999 V2000
    1.1196  -10.7715    0.2835 C   0  0
    1.2690  -11.7343   -0.7155 C   0  0
    2.5270  -12.0326   -1.2455 C   0  0
    2.2204  -10.0598    0.7977 C   0  0
    3.4933  -10.3666    0.2687 C   0  0
    3.6242  -11.3266   -0.7324 C   0  0
    4.9756  -11.3443   -1.0140 N   0  0
    5.5967  -10.4089   -0.2086 C   0  0
    4.7201   -9.8398    0.5931 N   0  0
    5.6222  -12.1723   -2.0261 C   0  0
    6.6177  -13.1541   -1.4510 C   0  0
    6.3404  -13.8906   -0.2921 C   0  0
    7.2812  -14.7861    0.2222 C   0  0
    8.5156  -14.9911   -0.4158 C   0  0
    8.7723  -14.2825   -1.5979 C   0  0
    7.8370  -13.3755   -2.1084 C   0  0
    9.4925  -15.9443    0.1386 C   0  0
    9.0953  -17.2929    0.2690 C   0  0
    9.9613  -18.2710    0.7614 C   0  0
   11.2568  -17.9304    1.1252 C   0  0
   11.6812  -16.6096    1.0010 C   0  0
   10.8100  -15.6108    0.5252 C   0  0
   11.3938  -14.2412    0.4818 C   0  0
   10.6010  -13.1912    0.8512 N   0  0
   12.5718  -14.0657    0.1864 O   0  0
    7.0669  -10.1211   -0.2406 C   0  0
    7.4152   -8.7848    0.4177 C   0  0
    8.9095   -8.5087    0.3547 C   0  0
    1.9961   -9.0246    1.8617 C   0  0
    0.1235  -10.5653    0.6711 H   0  0
    0.3883  -12.2559   -1.0877 H   0  0
    2.6358  -12.7823   -2.0212 H   0  0
    4.8584  -12.7229   -2.5833 H   0  0
    6.1038  -11.4788   -2.7256 H   0  0
    5.3954  -13.7661    0.2355 H   0  0
    7.0415  -15.3259    1.1374 H   0  0
    9.7111  -14.4311   -2.1316 H   0  0
    8.0772  -12.8404   -3.0256 H   0  0
    8.0953  -17.6004   -0.0344 H   0  0
    9.6158  -19.2967    0.8515 H   0  0
   11.9363  -18.6855    1.5069 H   0  0
   12.6980  -16.3474    1.2895 H   0  0
    9.6399  -13.2865    1.1473 H   0  0
   11.0332  -12.2767    0.8663 H   0  0
    7.5973  -10.9281    0.2783 H   0  0
    7.4191  -10.1048   -1.2783 H   0  0
    6.8766   -7.9687   -0.0792 H   0  0
    7.0966   -8.7855    1.4673 H   0  0
    9.1386   -7.5520    0.8343 H   0  0
    9.2561   -8.4604   -0.6825 H   0  0
    9.4750   -9.2917    0.8701 H   0  0
    2.9364   -8.5539    2.1652 H   0  0
    1.5472   -9.4859    2.7471 H   0  0
    1.3294   -8.2403    1.4894 H   0  0
  1  2  2  0
  1 30  1  0
  2  3  1  0
  2 31  1  0
  3  6  2  0
  3 32  1  0
  4  1  1  0
  4 29  1  0
  5  4  2  0
  5  6  1  0
  6  7  1  0
  7  8  1  0
  7 10  1  0
  8  9  2  0
  8 26  1  0
  9  5  1  0
 10 11  1  0
 10 33  1  0
 10 34  1  0
 11 12  2  0
 12 13  1  0
 12 35  1  0
 13 14  2  0
 13 36  1  0
 14 15  1  0
 14 17  1  0
 15 16  2  0
 15 37  1  0
 16 11  1  0
 16 38  1  0
 17 18  2  0
 18 19  1  0
 18 39  1  0
 19 20  2  0
 19 40  1  0
 20 21  1  0
 20 41  1  0
 21 22  2  0
 21 42  1  0
 22 17  1  0
 22 23  1  0
 23 24  1  0
 23 25  2  0
 24 43  1  0
 24 44  1  0
 26 27  1  0
 26 45  1  0
 26 46  1  0
 27 28  1  0
 27 47  1  0
 27 48  1  0
 28 49  1  0
 28 50  1  0
 28 51  1  0
 29 52  1  0
 29 53  1  0
 29 54  1  0
M  END
> <Name>
CHEMBL4576586

> <Clean Energy>
46.5397

> <chembl_id>
CHEMBL4576586

> <chembl_pref_name>
None

> <efficacy>
0.186134853

> <Forcefield>
MMFF

> <ForcefieldBase>
MMFF

> <ForcefieldFFML>
<?xml version="1.0" encoding="UTF-8"?>
<!DOCTYPE ffml SYSTEM "Ffml.dtd">
<ffml version="1.0">
<forcefield name="MMFF" derivedFrom="MMFF" base="MMFF">
<atomTypes>
<atomType
name="C100"
element="C"
mass="12.011"
annotation=""/>
<atomType
name="N101"
element="N"
mass="14.007"
annotation=""/>
<atomType
name="O102"
element="O"
mass="16"
annotation=""/>
<atomType
name="H103"
element="H"
mass="1.008"
annotation=""/>
</atomTypes>
<parameters>
</parameters>
</forcefield>
</ffml>

> <Initial Potential Energy>
226.04388

> <Initial RMS Gradient>
36.94449

> <Minimization Criteria>
CONJUG> Minimization exiting with gradient tolerance ( 0.0100000) satisfied.

> <CHARMm Energy>
60.36434

> <Potential Energy>
60.36434

> <RMS Gradient>
0.00945

> <Bond Energy>
7.43802

> <Angle Energy>
8.2401

> <STRBend>
-0.27775

> <Dihedral Energy>
5.38283

> <OOPLane>
0.10273

> <Van der Waals Energy>
55.9494

> <Electrostatic Energy>
-16.47099

> <Hydrogen Bond Energy>
0

> <Solvation Free Energy>
0

> <HasGasteigerCharges>
true

> <REMARK99>
REMARK  99  MacroMolecule created from Mol2 file
REMARK  99  CHEMBL4576586
REMARK  99  PROTEIN
REMARK  99  GASTEIGER
REMARK  99
REMARK  99

$$$$
CHEMBL470144
  SciTegic05292516403D

 50 51  0  0  0  0            999 V2000
   -1.6114    3.6855   -0.4173 C   0  0
   -1.6783    2.6436   -1.3366 C   0  0
   -0.5917    1.7857   -1.5024 C   0  0
    0.5733    1.9731   -0.7476 C   0  0
    0.6516    3.0249    0.1652 C   0  0
   -0.4493    3.8697    0.3349 C   0  0
   -3.1087    2.4084   -2.2636 Cl  0  0
    1.7124    3.3058    0.9753 O   0  0
    3.0202    2.8599    0.5860 C   0  0  1  0  0  0
    3.9970    3.9965    0.9230 C   0  0
    3.3652    1.6082    1.4044 C   0  0
    5.2048    3.8878    0.3125 O   0  0
    3.7501    4.9434    1.6576 O   0  0
    4.5979    0.8859    0.9164 C   0  0
    5.8015    0.9824    1.6273 C   0  0
    6.9555    0.3492    1.1608 C   0  0
    6.9272   -0.3922   -0.0256 C   0  0
    5.7213   -0.5010   -0.7289 C   0  0
    4.5667    0.1327   -0.2633 C   0  0
    8.1676   -1.0983   -0.5163 C   0  0
    8.2558   -2.5269    0.0249 C   0  0
    9.5155   -3.2344   -0.4776 C   0  0
    9.6012   -4.6644    0.0585 C   0  0
   10.8588   -5.3729   -0.4443 C   0  0
   10.9453   -6.7958    0.0844 C   0  0
   -2.4551    4.3553   -0.2770 H   0  0
   -0.6480    0.9637   -2.2114 H   0  0
    1.3866    1.2696   -0.8820 H   0  0
   -0.3997    4.6833    1.0564 H   0  0
    3.0782    2.7080   -0.4987 H   0  0
    3.4820    1.8760    2.4635 H   0  0
    2.5247    0.9020    1.3903 H   0  0
    5.3346    3.0760   -0.2172 H   0  0
    5.8542    1.5570    2.5512 H   0  0
    7.8780    0.4343    1.7329 H   0  0
    5.6739   -1.0917   -1.6419 H   0  0
    3.6433    0.0186   -0.8265 H   0  0
    8.1688   -1.1077   -1.6137 H   0  0
    9.0551   -0.5254   -0.2188 H   0  0
    8.2575   -2.5101    1.1222 H   0  0
    7.3690   -3.0966   -0.2805 H   0  0
    9.5138   -3.2527   -1.5742 H   0  0
   10.4029   -2.6708   -0.1645 H   0  0
    9.6035   -4.6463    1.1551 H   0  0
    8.7130   -5.2274   -0.2533 H   0  0
   10.8604   -5.3961   -1.5403 H   0  0
   11.7501   -4.8176   -0.1299 H   0  0
   11.8515   -7.2841   -0.2875 H   0  0
   10.0832   -7.3878   -0.2393 H   0  0
   10.9784   -6.8065    1.1786 H   0  0
  1  2  2  0
  1 26  1  0
  2  3  1  0
  2  7  1  0
  3  4  2  0
  3 27  1  0
  4  5  1  0
  4 28  1  0
  5  6  2  0
  5  8  1  0
  6  1  1  0
  6 29  1  0
  8  9  1  0
  9 10  1  0
  9 11  1  0
  9 30  1  0
 10 12  1  0
 10 13  2  0
 11 14  1  0
 11 31  1  0
 11 32  1  0
 12 33  1  0
 14 15  2  0
 15 16  1  0
 15 34  1  0
 16 17  2  0
 16 35  1  0
 17 18  1  0
 17 20  1  0
 18 19  2  0
 18 36  1  0
 19 14  1  0
 19 37  1  0
 20 21  1  0
 20 38  1  0
 20 39  1  0
 21 22  1  0
 21 40  1  0
 21 41  1  0
 22 23  1  0
 22 42  1  0
 22 43  1  0
 23 24  1  0
 23 44  1  0
 23 45  1  0
 24 25  1  0
 24 46  1  0
 24 47  1  0
 25 48  1  0
 25 49  1  0
 25 50  1  0
M  END
> <Name>
CHEMBL470144

> <Clean Energy>
11.5874

> <chembl_id>
CHEMBL470144

> <chembl_pref_name>
None

> <efficacy>
0.31

> <Forcefield>
MMFF

> <ForcefieldBase>
MMFF

> <ForcefieldFFML>
<?xml version="1.0" encoding="UTF-8"?>
<!DOCTYPE ffml SYSTEM "Ffml.dtd">
<ffml version="1.0">
<forcefield name="MMFF" derivedFrom="MMFF" base="MMFF">
<atomTypes>
<atomType
name="C100"
element="C"
mass="12.011"
annotation=""/>
<atomType
name="Cl101"
element="Cl"
mass="35.453"
annotation=""/>
<atomType
name="O102"
element="O"
mass="16"
annotation=""/>
<atomType
name="H103"
element="H"
mass="1.008"
annotation=""/>
</atomTypes>
<parameters>
</parameters>
</forcefield>
</ffml>

> <Initial Potential Energy>
109.35449

> <Initial RMS Gradient>
25.41765

> <Minimization Criteria>
STEEPD> Minimization exiting with gradient tolerance ( 3.0000000) satisfied.

> <CHARMm Energy>
53.89766

> <Potential Energy>
53.89766

> <RMS Gradient>
0.01111

> <Bond Energy>
4.58064

> <Angle Energy>
10.61561

> <STRBend>
0.15753

> <Dihedral Energy>
-8.81017

> <OOPLane>
0.02893

> <Van der Waals Energy>
44.08113

> <Electrostatic Energy>
3.24399

> <Hydrogen Bond Energy>
0

> <Solvation Free Energy>
0

> <HasGasteigerCharges>
true

> <REMARK99>
REMARK  99  MacroMolecule created from Mol2 file
REMARK  99  CHEMBL470144
REMARK  99  PROTEIN
REMARK  99  GASTEIGER
REMARK  99
REMARK  99

$$$$
CHEMBL1946758
  SciTegic05292516403D

 59 63  0  0  0  0            999 V2000
    6.5998    0.6146   -0.2504 C   0  0
    6.6722   -0.7786   -0.0564 C   0  0
    7.9038   -1.4121    0.1912 C   0  0
    7.7881    1.3814   -0.2340 C   0  0
    9.0020    0.7537    0.0349 C   0  0
    9.0473   -0.6342    0.2441 C   0  0
   10.3732   -1.0018    0.5483 N   0  0
   11.1533    0.1761    0.6034 C   0  0
   10.3212    1.2468    0.1907 N   0  0
   12.2971    0.2192    1.0292 O   0  0
   10.7324    2.5807    0.0958 C   0  0
   10.8286   -2.2745    1.0725 C   0  0
   11.8755   -3.0132    0.2474 C   0  0
   11.5214   -4.1075   -0.5520 C   0  0
   12.5022   -4.8402   -1.2410 C   0  0
   13.8551   -4.4882   -1.1596 C   0  0
   14.2311   -3.4038   -0.3658 C   0  0
   13.2409   -2.6713    0.3168 C   0  0
   15.4991   -2.8973   -0.2788 O   0  0
   16.5026   -3.7068    0.3523 C   0  0  1  0  0  0
   17.7604   -2.8329    0.4345 C   0  0
   18.9088   -3.5377    0.6076 O   0  0
   17.7847   -1.6117    0.3701 O   0  0
   16.1209   -4.1272    1.7686 C   0  0
   14.9743   -5.3984   -2.1080 Cl  0  0
   10.6687    4.7722    0.1313 O   0  0
    9.8876    3.6304    0.1307 N   0  0
   11.9816    4.4402    0.0290 C   0  0
   12.0887    3.0628   -0.0482 C   0  0
   13.3836    2.5372   -0.2486 C   0  0
   14.4965    3.3964   -0.2796 C   0  0
   14.3455    4.7773   -0.1439 C   0  0
   13.0639    5.3312   -0.0029 C   0  0
   15.3783    5.6806   -0.1420 O   0  0
   16.6915    5.1510   -0.2843 C   0  0
    5.4424    1.3290   -0.4645 O   0  0
    4.1891    0.7078   -0.1861 C   0  0
    3.2081    1.6318   -0.2693 F   0  0
    3.9365   -0.2689   -1.0840 F   0  0
    4.1802    0.1818    1.0572 F   0  0
    5.7801   -1.4030   -0.0888 H   0  0
    7.9385   -2.4837    0.3470 H   0  0
    7.7283    2.4534   -0.3978 H   0  0
   11.2613   -2.0846    2.0641 H   0  0
    9.9726   -2.9358    1.2457 H   0  0
   10.4797   -4.4107   -0.6405 H   0  0
   12.2020   -5.6868   -1.8560 H   0  0
   13.5523   -1.8191    0.9195 H   0  0
   16.7460   -4.5672   -0.2753 H   0  0
   18.8286   -4.5089    0.6089 H   0  0
   16.9509   -4.6313    2.2745 H   0  0
   15.2675   -4.8125    1.7608 H   0  0
   15.8320   -3.2579    2.3702 H   0  0
   13.5514    1.4726   -0.3812 H   0  0
   15.4779    2.9414   -0.4079 H   0  0
   12.9125    6.4026    0.0809 H   0  0
   17.3921    5.9909   -0.2509 H   0  0
   16.8152    4.6553   -1.2530 H   0  0
   16.9409    4.4796    0.5441 H   0  0
  1  2  2  0
  1 36  1  0
  2  3  1  0
  2 41  1  0
  3  6  2  0
  3 42  1  0
  4  1  1  0
  4 43  1  0
  5  4  2  0
  5  6  1  0
  6  7  1  0
  7  8  1  0
  7 12  1  0
  8  9  1  0
  8 10  2  0
  9  5  1  0
  9 11  1  0
 11 29  1  0
 12 13  1  0
 12 44  1  0
 12 45  1  0
 13 14  2  0
 14 15  1  0
 14 46  1  0
 15 16  2  0
 15 47  1  0
 16 17  1  0
 16 25  1  0
 17 18  2  0
 17 19  1  0
 18 13  1  0
 18 48  1  0
 19 20  1  0
 20 21  1  0
 20 24  1  0
 20 49  1  0
 21 22  1  0
 21 23  2  0
 22 50  1  0
 24 51  1  0
 24 52  1  0
 24 53  1  0
 26 27  1  0
 27 11  2  0
 28 26  1  0
 28 29  2  0
 29 30  1  0
 30 31  2  0
 30 54  1  0
 31 32  1  0
 31 55  1  0
 32 33  2  0
 32 34  1  0
 33 28  1  0
 33 56  1  0
 34 35  1  0
 35 57  1  0
 35 58  1  0
 35 59  1  0
 36 37  1  0
 37 38  1  0
 37 39  1  0
 37 40  1  0
M  END
> <Name>
CHEMBL1946758

> <Clean Energy>
80.556297

> <chembl_id>
CHEMBL1946758

> <chembl_pref_name>
None

> <efficacy>
0.31

> <Forcefield>
MMFF

> <ForcefieldBase>
MMFF

> <ForcefieldFFML>
<?xml version="1.0" encoding="UTF-8"?>
<!DOCTYPE ffml SYSTEM "Ffml.dtd">
<ffml version="1.0">
<forcefield name="MMFF" derivedFrom="MMFF" base="MMFF">
<atomTypes>
<atomType
name="C100"
element="C"
mass="12.011"
annotation=""/>
<atomType
name="N101"
element="N"
mass="14.007"
annotation=""/>
<atomType
name="O102"
element="O"
mass="16"
annotation=""/>
<atomType
name="Cl103"
element="Cl"
mass="35.453"
annotation=""/>
<atomType
name="F104"
element="F"
mass="18.998"
annotation=""/>
<atomType
name="H105"
element="H"
mass="1.008"
annotation=""/>
</atomTypes>
<parameters>
</parameters>
</forcefield>
</ffml>

> <Initial Potential Energy>
201.15902

> <Initial RMS Gradient>
33.15908

> <Minimization Criteria>
STEEPD> Minimization exiting with gradient tolerance ( 3.0000000) satisfied.

> <CHARMm Energy>
94.59102

> <Potential Energy>
94.59102

> <RMS Gradient>
0.10372

> <Bond Energy>
9.71497

> <Angle Energy>
55.17934

> <STRBend>
-1.79741

> <Dihedral Energy>
9.73247

> <OOPLane>
0.50832

> <Van der Waals Energy>
67.40331

> <Electrostatic Energy>
-46.14998

> <Hydrogen Bond Energy>
0

> <Solvation Free Energy>
0

> <HasGasteigerCharges>
true

> <REMARK99>
REMARK  99  MacroMolecule created from Mol2 file
REMARK  99  CHEMBL1946758
REMARK  99  PROTEIN
REMARK  99  GASTEIGER
REMARK  99
REMARK  99

$$$$
CHEMBL4514313
  SciTegic05292516403D

 32 33  0  0  0  0            999 V2000
   13.7290  -19.5347    0.1812 C   0  0
   13.9506  -20.8088   -0.2760 C   0  0
   15.2660  -21.1798   -0.3788 C   0  0
   16.3160  -20.4042   -0.0827 N   0  0
   16.0053  -19.1768    0.3366 C   0  0
   14.7533  -18.7128    0.4759 N   0  0
   12.4607  -18.9764    0.3236 N   0  0
   11.1506  -19.4770    0.3257 C   0  0
   10.1160  -18.6305   -0.1099 C   0  0
    8.7880  -19.0712   -0.1884 C   0  0
    8.4870  -20.3785    0.1987 C   0  0
    9.4962  -21.2341    0.6340 C   0  0
   10.8180  -20.7857    0.6913 C   0  0
   17.3216  -18.0499    0.7283 S   0  0
   18.7360  -19.0193    0.1370 C   0  0
   20.0545  -18.2828    0.2523 C   0  0
   21.0807  -19.0064   -0.2796 O   0  0
   20.2586  -17.1884    0.7530 O   0  0
   15.6929  -22.7440   -0.9442 Cl  0  0
    7.6963  -18.1375   -0.6233 C   0  0
   13.1557  -21.4741   -0.5753 H   0  0
   12.5396  -17.9897    0.5496 H   0  0
   10.3550  -17.6107   -0.4071 H   0  0
    7.4599  -20.7376    0.1689 H   0  0
    9.2407  -22.2464    0.9420 H   0  0
   11.5724  -21.4649    1.0758 H   0  0
   18.8160  -19.9387    0.7258 H   0  0
   18.5831  -19.2584   -0.9207 H   0  0
   20.8087  -19.8717   -0.6424 H   0  0
    6.8853  -18.6860   -1.1138 H   0  0
    8.0741  -17.4042   -1.3435 H   0  0
    7.2913  -17.6065    0.2436 H   0  0
  1  2  2  0
  1  7  1  0
  2  3  1  0
  2 21  1  0
  3  4  2  0
  3 19  1  0
  4  5  1  0
  5  6  2  0
  5 14  1  0
  6  1  1  0
  7  8  1  0
  7 22  1  0
  8  9  2  0
  9 10  1  0
  9 23  1  0
 10 11  2  0
 10 20  1  0
 11 12  1  0
 11 24  1  0
 12 13  2  0
 12 25  1  0
 13  8  1  0
 13 26  1  0
 14 15  1  0
 15 16  1  0
 15 27  1  0
 15 28  1  0
 16 17  1  0
 16 18  2  0
 17 29  1  0
 20 30  1  0
 20 31  1  0
 20 32  1  0
M  END
> <Name>
CHEMBL4514313

> <Clean Energy>
3.35231

> <chembl_id>
CHEMBL4514313

> <chembl_pref_name>
None

> <efficacy>
0.2

> <Forcefield>
MMFF

> <ForcefieldBase>
MMFF

> <ForcefieldFFML>
<?xml version="1.0" encoding="UTF-8"?>
<!DOCTYPE ffml SYSTEM "Ffml.dtd">
<ffml version="1.0">
<forcefield name="MMFF" derivedFrom="MMFF" base="MMFF">
<atomTypes>
<atomType
name="C100"
element="C"
mass="12.011"
annotation=""/>
<atomType
name="N101"
element="N"
mass="14.007"
annotation=""/>
<atomType
name="S102"
element="S"
mass="32.066"
annotation=""/>
<atomType
name="O103"
element="O"
mass="16"
annotation=""/>
<atomType
name="Cl104"
element="Cl"
mass="35.453"
annotation=""/>
<atomType
name="H105"
element="H"
mass="1.008"
annotation=""/>
</atomTypes>
<parameters>
</parameters>
</forcefield>
</ffml>

> <Initial Potential Energy>
-4.02148

> <Initial RMS Gradient>
41.68056

> <Minimization Criteria>
CONJUG> Minimization exiting with gradient tolerance ( 0.0100000) satisfied.

> <CHARMm Energy>
-87.87811

> <Potential Energy>
-87.87811

> <RMS Gradient>
0.0077

> <Bond Energy>
1.94243

> <Angle Energy>
11.25976

> <STRBend>
-0.07111

> <Dihedral Energy>
4.21565

> <OOPLane>
0.09761

> <Van der Waals Energy>
35.13991

> <Electrostatic Energy>
-140.46235

> <Hydrogen Bond Energy>
0

> <Solvation Free Energy>
0

> <HasGasteigerCharges>
true

> <REMARK99>
REMARK  99  MacroMolecule created from Mol2 file
REMARK  99  CHEMBL4514313
REMARK  99  PROTEIN
REMARK  99  GASTEIGER
REMARK  99
REMARK  99

$$$$
CHEMBL3398439
  SciTegic05292516403D

 69 73  0  0  0  0            999 V2000
    9.1584   -1.6951    0.6069 C   0  0
   10.5444   -1.7147    0.7815 C   0  0
    1.8905   -1.0744   -0.3626 C   0  0
    2.0067    0.3263   -0.3447 C   0  0
    8.4402   -2.8920    0.6928 C   0  0
    0.6385   -1.6833   -0.4855 C   0  0
    3.3261    0.9323   -0.2023 C   0  0
    5.4004    1.3805    0.0008 C   0  0
    9.1010   -4.1008    0.9743 C   0  0
   11.2099   -2.9064    1.0592 C   0  0
    7.2153   -0.3428    0.2834 C   0  0
   10.4911   -4.0943    1.1618 C   0  0
    6.8622    1.1337    0.1013 C   0  0
    4.5044    0.3414   -0.1331 N   0  0
   -0.4071    0.4870   -0.5873 C   0  0
    0.8419    1.1006   -0.4618 C   0  0
    5.0845    3.9983    0.1348 C   0  0
    4.7139    2.5775    0.0131 C   0  0
    8.6385   -0.4519    0.3613 O   0  0
   -0.5080   -0.9027   -0.5975 C   0  0
    3.3834    2.2979   -0.1171 O   0  0
    8.3309   -5.3993    1.0750 C   0  0
    7.9388   -6.0134   -0.2927 C   0  0  1  0  0  0
    9.1724   -6.3250   -1.1536 C   0  0
    9.6022   -7.6236   -0.6699 N   0  0
    8.5339   -8.3201    0.0150 C   0  0
    7.3112   -7.4347   -0.1902 C   0  0  1  0  0  0
    6.2404   -7.6139    0.8565 C   0  0
    5.5448   -6.6960    1.2667 O   0  0
    6.0444   -8.8917    1.2610 O   0  0
   10.8869   -8.0980   -0.7958 C   0  0
   11.7849   -7.5119   -1.3874 O   0  0
   11.0250   -9.3282   -0.1528 O   0  0
   12.2952   -9.9185   -0.1638 C   0  0
   12.8461  -10.2683    1.0683 C   0  0
   14.0954  -10.8834    1.1064 C   0  0
   14.7743  -11.1523   -0.0833 C   0  0
   14.1996  -10.8226   -1.3123 C   0  0
   12.9491  -10.2135   -1.3577 C   0  0
   11.1074   -0.7884    0.7069 H   0  0
    2.7807   -1.6976   -0.2755 H   0  0
    7.3633   -2.9120    0.5547 H   0  0
    0.5565   -2.7669   -0.4919 H   0  0
   12.2871   -2.9061    1.1958 H   0  0
    6.8495   -0.9221   -0.5736 H   0  0
    6.7573   -0.7190    1.2070 H   0  0
   11.0245   -5.0177    1.3769 H   0  0
    7.3587    1.5159   -0.7993 H   0  0
    7.2772    1.7080    0.9391 H   0  0
   -1.3023    1.0968   -0.6731 H   0  0
    0.8942    2.1887   -0.4535 H   0  0
    4.4980    4.6133   -0.5547 H   0  0
    6.1434    4.1494   -0.0959 H   0  0
    4.9018    4.3525    1.1537 H   0  0
   -1.4806   -1.3788   -0.6888 H   0  0
    8.9131   -6.1134    1.6709 H   0  0
    7.4331   -5.1960    1.6696 H   0  0
    7.2675   -5.3243   -0.8187 H   0  0
    8.8853   -6.4530   -2.2044 H   0  0
    9.9826   -5.5946   -1.1178 H   0  0
    8.4051   -9.3153   -0.4241 H   0  0
    8.8069   -8.4413    1.0695 H   0  0
    6.8494   -7.6771   -1.1578 H   0  0
    6.5480   -9.6113    0.8316 H   0  0
   12.3150  -10.0556    1.9907 H   0  0
   14.5430  -11.1540    2.0593 H   0  0
   15.7522  -11.6217   -0.0519 H   0  0
   14.7254  -11.0369   -2.2374 H   0  0
   12.5062   -9.9549   -2.3145 H   0  0
  1  5  2  0
  2  1  1  0
  2 40  1  0
  3  6  1  0
  3 41  1  0
  4  3  2  0
  5  9  1  0
  5 42  1  0
  6 20  2  0
  6 43  1  0
  7  4  1  0
  7 14  2  0
  8 13  1  0
  8 18  2  0
  9 12  2  0
  9 22  1  0
 10  2  2  0
 10 44  1  0
 11 19  1  0
 11 45  1  0
 11 46  1  0
 12 10  1  0
 12 47  1  0
 13 11  1  0
 13 48  1  0
 13 49  1  0
 14  8  1  0
 15 16  2  0
 15 50  1  0
 16  4  1  0
 16 51  1  0
 17 52  1  0
 17 53  1  0
 17 54  1  0
 18 17  1  0
 18 21  1  0
 19  1  1  0
 20 15  1  0
 20 55  1  0
 21  7  1  0
 22 56  1  0
 22 57  1  0
 23 22  1  0
 23 24  1  0
 23 58  1  0
 24 25  1  0
 24 59  1  0
 24 60  1  0
 25 26  1  0
 25 31  1  0
 26 27  1  0
 26 61  1  0
 26 62  1  0
 27 23  1  0
 27 28  1  0
 27 63  1  0
 28 29  2  0
 28 30  1  0
 30 64  1  0
 31 32  2  0
 31 33  1  0
 33 34  1  0
 34 35  2  0
 35 36  1  0
 35 65  1  0
 36 37  2  0
 36 66  1  0
 37 38  1  0
 37 67  1  0
 38 39  2  0
 38 68  1  0
 39 34  1  0
 39 69  1  0
M  END
> <Name>
CHEMBL3398439

> <Clean Energy>
71.279701

> <chembl_id>
CHEMBL3398439

> <chembl_pref_name>
None

> <efficacy>
0.09

> <Forcefield>
MMFF

> <ForcefieldBase>
MMFF

> <ForcefieldFFML>
<?xml version="1.0" encoding="UTF-8"?>
<!DOCTYPE ffml SYSTEM "Ffml.dtd">
<ffml version="1.0">
<forcefield name="MMFF" derivedFrom="MMFF" base="MMFF">
<atomTypes>
<atomType
name="C100"
element="C"
mass="12.011"
annotation=""/>
<atomType
name="N101"
element="N"
mass="14.007"
annotation=""/>
<atomType
name="O102"
element="O"
mass="16"
annotation=""/>
<atomType
name="H103"
element="H"
mass="1.008"
annotation=""/>
</atomTypes>
<parameters>
</parameters>
</forcefield>
</ffml>

> <Initial Potential Energy>
140.70554

> <Initial RMS Gradient>
28.81153

> <Minimization Criteria>
STEEPD> Minimization exiting with gradient tolerance ( 3.0000000) satisfied.

> <CHARMm Energy>
30.02156

> <Potential Energy>
30.02156

> <RMS Gradient>
0.03937

> <Bond Energy>
7.19766

> <Angle Energy>
26.34209

> <STRBend>
-0.77382

> <Dihedral Energy>
0.94386

> <OOPLane>
0.14256

> <Van der Waals Energy>
67.32484

> <Electrostatic Energy>
-71.15564

> <Hydrogen Bond Energy>
0

> <Solvation Free Energy>
0

> <HasGasteigerCharges>
true

> <REMARK99>
REMARK  99  MacroMolecule created from Mol2 file
REMARK  99  CHEMBL3398439
REMARK  99  PROTEIN
REMARK  99  GASTEIGER
REMARK  99
REMARK  99

$$$$
CHEMBL496807
  SciTegic05292516403D

 57 60  0  0  0  0            999 V2000
    5.3774   -3.2910   -0.3829 C   0  0
    5.8784   -4.3202    0.4184 C   0  0
    7.2514   -4.5773    0.4821 C   0  0
    8.1539   -3.8038   -0.2603 C   0  0
    7.6423   -2.7820   -1.0771 C   0  0
    6.2649   -2.5261   -1.1376 C   0  0
    9.6378   -4.0931   -0.2229 C   0  0
   10.0540   -4.6494    0.9492 F   0  0
   10.0190   -4.9582   -1.2034 F   0  0
   10.4015   -2.9771   -0.3948 F   0  0
    4.0181   -3.1543   -0.3475 O   0  0
    3.4491   -1.9894   -0.9514 C   0  0
    1.9750   -1.9003   -0.5838 C   0  0
    1.0020   -1.5387   -1.5269 C   0  0
   -0.3609   -1.4917   -1.1789 C   0  0
   -0.7806   -1.7938    0.1249 C   0  0
    0.2013   -2.1134    1.0803 C   0  0
    1.5585   -2.1568    0.7302 C   0  0
   -2.5272   -1.9439    0.4877 S   0  0
   -3.2542   -0.3858   -0.0131 C   0  0
   -4.7835    1.8433   -0.7603 C   0  0
   -4.8771    0.6641   -1.4927 C   0  0
   -4.1224   -0.4439   -1.1147 C   0  0
   -5.5778    2.9121   -1.1074 O   0  0
   -6.9144    2.7101   -0.6093 C   0  0
   -7.7401    3.9571   -0.8562 C   0  0
   -7.0994    4.9104   -1.5762 O   0  0
   -8.8908    4.0999   -0.4665 O   0  0
   -3.7647    3.2798    1.0385 C   0  0
   -3.8696    1.9626    0.3017 C   0  0
   -3.1226    0.8246    0.7090 C   0  0
   -2.1708    0.9183    1.8870 C   0  0
   -2.3754    2.1494    2.7667 C   0  0
   -2.5189    3.3940    1.9090 C   0  0
   -0.1877   -2.5103    2.7239 Cl  0  0
    5.1873   -4.9253    1.0022 H   0  0
    7.6100   -5.3875    1.1152 H   0  0
    8.3197   -2.1768   -1.6788 H   0  0
    5.9205   -1.7306   -1.7905 H   0  0
    3.9410   -1.0787   -0.5880 H   0  0
    3.5532   -2.0634   -2.0402 H   0  0
    1.2859   -1.3121   -2.5532 H   0  0
   -1.0973   -1.2482   -1.9461 H   0  0
    2.3015   -2.4365    1.4798 H   0  0
   -5.5501    0.5894   -2.3416 H   0  0
   -4.2400   -1.3719   -1.6717 H   0  0
   -7.3945    1.8829   -1.1431 H   0  0
   -6.8936    2.5308    0.4717 H   0  0
   -6.1868    4.6049   -1.7759 H   0  0
   -3.7581    4.1097    0.3217 H   0  0
   -4.6569    3.3905    1.6676 H   0  0
   -2.2754    0.0402    2.5331 H   0  0
   -1.1470    0.9326    1.4935 H   0  0
   -3.2731    2.0216    3.3850 H   0  0
   -1.5272    2.2560    3.4523 H   0  0
   -1.6283    3.5168    1.2799 H   0  0
   -2.5921    4.2851    2.5424 H   0  0
  1  2  2  0
  1 11  1  0
  2  3  1  0
  2 36  1  0
  3  4  2  0
  3 37  1  0
  4  5  1  0
  4  7  1  0
  5  6  2  0
  5 38  1  0
  6  1  1  0
  6 39  1  0
  7  8  1  0
  7  9  1  0
  7 10  1  0
 11 12  1  0
 12 13  1  0
 12 40  1  0
 12 41  1  0
 13 14  2  0
 14 15  1  0
 14 42  1  0
 15 16  2  0
 15 43  1  0
 16 17  1  0
 16 19  1  0
 17 18  2  0
 17 35  1  0
 18 13  1  0
 18 44  1  0
 19 20  1  0
 20 31  2  0
 21 22  1  0
 21 24  1  0
 22 23  2  0
 22 45  1  0
 23 20  1  0
 23 46  1  0
 24 25  1  0
 25 26  1  0
 25 47  1  0
 25 48  1  0
 26 27  1  0
 26 28  2  0
 27 49  1  0
 29 30  1  0
 29 34  1  0
 29 50  1  0
 29 51  1  0
 30 21  2  0
 30 31  1  0
 31 32  1  0
 32 33  1  0
 32 52  1  0
 32 53  1  0
 33 34  1  0
 33 54  1  0
 33 55  1  0
 34 56  1  0
 34 57  1  0
M  END
> <Name>
CHEMBL496807

> <Clean Energy>
111.529999

> <chembl_id>
CHEMBL496807

> <chembl_pref_name>
None

> <efficacy>
0.2

> <Forcefield>
MMFF

> <ForcefieldBase>
MMFF

> <ForcefieldFFML>
<?xml version="1.0" encoding="UTF-8"?>
<!DOCTYPE ffml SYSTEM "Ffml.dtd">
<ffml version="1.0">
<forcefield name="MMFF" derivedFrom="MMFF" base="MMFF">
<atomTypes>
<atomType
name="C100"
element="C"
mass="12.011"
annotation=""/>
<atomType
name="F101"
element="F"
mass="18.998"
annotation=""/>
<atomType
name="O102"
element="O"
mass="16"
annotation=""/>
<atomType
name="S103"
element="S"
mass="32.066"
annotation=""/>
<atomType
name="Cl104"
element="Cl"
mass="35.453"
annotation=""/>
<atomType
name="H105"
element="H"
mass="1.008"
annotation=""/>
</atomTypes>
<parameters>
</parameters>
</forcefield>
</ffml>

> <Initial Potential Energy>
396.80424

> <Initial RMS Gradient>
30.88659

> <Minimization Criteria>
CONJUG> Minimization exiting with gradient tolerance ( 0.0100000) satisfied.

> <CHARMm Energy>
106.36079

> <Potential Energy>
106.36079

> <RMS Gradient>
0.00964

> <Bond Energy>
8.3845

> <Angle Energy>
14.10271

> <STRBend>
0.57276

> <Dihedral Energy>
5.653

> <OOPLane>
0.20088

> <Van der Waals Energy>
65.43955

> <Electrostatic Energy>
12.00739

> <Hydrogen Bond Energy>
0

> <Solvation Free Energy>
0

> <HasGasteigerCharges>
true

> <REMARK99>
REMARK  99  MacroMolecule created from Mol2 file
REMARK  99  CHEMBL496807
REMARK  99  PROTEIN
REMARK  99  GASTEIGER
REMARK  99
REMARK  99

$$$$
CHEMBL1946757
  SciTegic05292516403D

 58 62  0  0  0  0            999 V2000
   -6.1298    0.4153   -0.5926 C   0  0
   -6.0966   -0.9612   -0.2603 C   0  0
   -4.9586   -1.5386    0.3147 C   0  0
   -5.0088    1.2226   -0.3405 C   0  0
   -3.8953    0.6469    0.2466 C   0  0
   -3.8757   -0.7159    0.5589 C   0  0
   -2.6311   -1.0125    1.1268 N   0  0
   -1.8536    0.1697    1.1842 C   0  0
   -2.6433    1.1871    0.6053 N   0  0
   -0.7442    0.2465    1.6894 O   0  0
   -2.2896    2.5171    0.4337 C   0  0
   -2.1768   -2.2930    1.5995 C   0  0
   -1.2640   -2.9645    0.5996 C   0  0
   -1.7819   -3.7491   -0.4382 C   0  0
   -0.9296   -4.3009   -1.3986 C   0  0
    0.4480   -4.0777   -1.3310 C   0  0
    0.9788   -3.3204   -0.2827 C   0  0
    0.1224   -2.7488    0.6603 C   0  0
    2.3041   -2.9915   -0.1757 O   0  0
    3.1392   -4.0763    0.2495 C   0  0  1  0  0  0
    4.5296   -3.8605   -0.3369 C   0  0
    5.2055   -5.0214   -0.5363 O   0  0
    5.0617   -2.7868   -0.5796 O   0  0
    3.2523   -4.0800    1.7698 C   0  0
    1.4369   -4.7272   -2.5873 Cl  0  0
   -2.5355    4.6745    0.1694 O   0  0
   -3.2097    3.4897    0.3138 N   0  0
   -1.2054    4.4363    0.1575 C   0  0
   -0.9772    3.0809    0.3243 C   0  0
    0.3585    2.6426    0.2827 C   0  0
    1.3834    3.5861    0.0967 C   0  0
    1.0980    4.9460   -0.0535 C   0  0
   -0.2203    5.4010   -0.0168 C   0  0
    2.0173    5.9394   -0.2539 O   0  0
    3.3736    5.5237   -0.3901 C   0  0
   -7.3838    1.0275   -1.1722 C   0  0
   -7.2496    2.3300   -1.5541 F   0  0
   -7.8499    0.3646   -2.2700 F   0  0
   -8.4202    1.0131   -0.2819 F   0  0
   -6.9800   -1.5757   -0.4466 H   0  0
   -4.9399   -2.5931    0.5607 H   0  0
   -5.0452    2.2768   -0.6009 H   0  0
   -1.6288   -2.1390    2.5375 H   0  0
   -3.0262   -2.9406    1.8423 H   0  0
   -2.8532   -3.9156   -0.5238 H   0  0
   -1.3510   -4.8849   -2.2132 H   0  0
    0.5415   -2.1065    1.4344 H   0  0
    2.7583   -5.0415   -0.1032 H   0  0
    4.7547   -5.8652   -0.3321 H   0  0
    3.9612   -4.8390    2.1161 H   0  0
    2.2808   -4.2812    2.2322 H   0  0
    3.5863   -3.1042    2.1401 H   0  0
    0.6203    1.5923    0.3675 H   0  0
    2.3999    3.2070    0.0658 H   0  0
   -0.4665    6.4508   -0.1400 H   0  0
    3.9771    6.4162   -0.5813 H   0  0
    3.4982    4.8498   -1.2442 H   0  0
    3.7405    5.0675    0.5354 H   0  0
  1  2  2  0
  1 36  1  0
  2  3  1  0
  2 40  1  0
  3  6  2  0
  3 41  1  0
  4  1  1  0
  4 42  1  0
  5  4  2  0
  5  6  1  0
  6  7  1  0
  7  8  1  0
  7 12  1  0
  8  9  1  0
  8 10  2  0
  9  5  1  0
  9 11  1  0
 11 29  1  0
 12 13  1  0
 12 43  1  0
 12 44  1  0
 13 14  2  0
 14 15  1  0
 14 45  1  0
 15 16  2  0
 15 46  1  0
 16 17  1  0
 16 25  1  0
 17 18  2  0
 17 19  1  0
 18 13  1  0
 18 47  1  0
 19 20  1  0
 20 21  1  0
 20 24  1  0
 20 48  1  0
 21 22  1  0
 21 23  2  0
 22 49  1  0
 24 50  1  0
 24 51  1  0
 24 52  1  0
 26 27  1  0
 27 11  2  0
 28 26  1  0
 28 29  2  0
 29 30  1  0
 30 31  2  0
 30 53  1  0
 31 32  1  0
 31 54  1  0
 32 33  2  0
 32 34  1  0
 33 28  1  0
 33 55  1  0
 34 35  1  0
 35 56  1  0
 35 57  1  0
 35 58  1  0
 36 37  1  0
 36 38  1  0
 36 39  1  0
M  END
> <Name>
CHEMBL1946757

> <Clean Energy>
89.222801

> <chembl_id>
CHEMBL1946757

> <chembl_pref_name>
None

> <efficacy>
0.43

> <Forcefield>
MMFF

> <ForcefieldBase>
MMFF

> <ForcefieldFFML>
<?xml version="1.0" encoding="UTF-8"?>
<!DOCTYPE ffml SYSTEM "Ffml.dtd">
<ffml version="1.0">
<forcefield name="MMFF" derivedFrom="MMFF" base="MMFF">
<atomTypes>
<atomType
name="C100"
element="C"
mass="12.011"
annotation=""/>
<atomType
name="N101"
element="N"
mass="14.007"
annotation=""/>
<atomType
name="O102"
element="O"
mass="16"
annotation=""/>
<atomType
name="Cl103"
element="Cl"
mass="35.453"
annotation=""/>
<atomType
name="F104"
element="F"
mass="18.998"
annotation=""/>
<atomType
name="H105"
element="H"
mass="1.008"
annotation=""/>
</atomTypes>
<parameters>
</parameters>
</forcefield>
</ffml>

> <Initial Potential Energy>
217.28355

> <Initial RMS Gradient>
33.58788

> <Minimization Criteria>
STEEPD> Minimization exiting with gradient tolerance ( 3.0000000) satisfied.

> <CHARMm Energy>
90.48723

> <Potential Energy>
90.48723

> <RMS Gradient>
0.10137

> <Bond Energy>
7.2485

> <Angle Energy>
42.17404

> <STRBend>
-2.60288

> <Dihedral Energy>
10.0759

> <OOPLane>
0.21676

> <Van der Waals Energy>
64.73774

> <Electrostatic Energy>
-31.36282

> <Hydrogen Bond Energy>
0

> <Solvation Free Energy>
0

> <HasGasteigerCharges>
true

> <REMARK99>
REMARK  99  MacroMolecule created from Mol2 file
REMARK  99  CHEMBL1946757
REMARK  99  PROTEIN
REMARK  99  GASTEIGER
REMARK  99
REMARK  99

$$$$
CHEMBL3398444
  SciTegic05292516403D

 66 70  0  0  0  0            999 V2000
    1.7283   -1.0682    0.8231 C   0  0
    1.5292    0.1278    0.1147 C   0  0
    0.6444   -1.8557    1.2225 C   0  0
    2.6768    0.9265   -0.3023 C   0  0
    4.6023    1.7712   -0.7229 C   0  0
    6.7006    3.2040   -0.5623 C   0  0
    6.0881    1.8180   -0.7178 C   0  0
    3.9543    0.7969    0.0048 N   0  0
   -0.8692   -0.2626    0.2276 C   0  0
    0.2154    0.5199   -0.1775 C   0  0
    3.7164    3.6440   -2.3545 C   0  0
    3.6660    2.5095   -1.4157 C   0  0
    8.1119    3.0260   -0.3911 O   0  0
   -0.6538   -1.4497    0.9243 C   0  0
    2.4309    1.9882   -1.1403 O   0  0
    8.8597    4.1481   -0.1653 C   0  0
   10.9869    4.9906    0.6456 C   0  0
   10.1346    3.9217    0.3587 C   0  0
   10.5672    6.2991    0.4079 C   0  0
    9.3017    6.5419   -0.1373 C   0  0
    8.4585    5.4557   -0.4327 C   0  0
    8.8306    7.9525   -0.4001 C   0  0
    8.1764    8.6372    0.8252 C   0  0  2  0  0  0
    6.9114    7.9045    1.3152 C   0  0
    5.8625    8.4054    0.4256 N   0  0
    6.2645    9.6558   -0.2049 C   0  0
    7.5770   10.0213    0.4937 C   0  0  2  0  0  0
    8.5009   10.9476   -0.2589 C   0  0
    9.7067   11.0142   -0.0525 O   0  0
    7.9074   11.8101   -1.1135 O   0  0
    4.6463    7.7901    0.2383 C   0  0
    4.2613    6.6590    0.9779 C   0  0
    3.0265    6.0240    0.7857 C   0  0
    2.1308    6.5113   -0.1572 C   0  0
    2.4766    7.6288   -0.9056 C   0  0
    3.7171    8.2529   -0.7082 C   0  0
    2.7401   -1.3922    1.0638 H   0  0
    0.8146   -2.7806    1.7677 H   0  0
    6.2777    3.7149    0.3117 H   0  0
    6.5045    3.7897   -1.4671 H   0  0
    6.4632    1.1745    0.0894 H   0  0
    6.4621    1.3613   -1.6432 H   0  0
   -1.8782    0.0667   -0.0009 H   0  0
    0.0227    1.4400   -0.7240 H   0  0
    2.7181    3.9041   -2.7202 H   0  0
    4.3398    3.3968   -3.2191 H   0  0
    4.1383    4.5279   -1.8680 H   0  0
   -1.4969   -2.0569    1.2387 H   0  0
   11.9781    4.8034    1.0541 H   0  0
   10.4632    2.9035    0.5529 H   0  0
   11.2384    7.1256    0.6369 H   0  0
    7.4837    5.6629   -0.8649 H   0  0
    9.6965    8.5353   -0.7369 H   0  0
    8.1473    7.9388   -1.2584 H   0  0
    8.9126    8.7073    1.6348 H   0  0
    7.0180    6.8194    1.2970 H   0  0
    6.6798    8.2014    2.3459 H   0  0
    6.3982    9.5186   -1.2844 H   0  0
    5.5204   10.4440   -0.0400 H   0  0
    7.3361   10.5342    1.4361 H   0  0
    6.9411   11.7252   -1.2036 H   0  0
    4.9162    6.2481    1.7412 H   0  0
    2.7693    5.1514    1.3815 H   0  0
    1.1688    6.0266   -0.3033 H   0  0
    1.7832    8.0272   -1.6431 H   0  0
    3.9402    9.1175   -1.3249 H   0  0
  1  3  1  0
  1 37  1  0
  2  1  2  0
  3 14  2  0
  3 38  1  0
  4  2  1  0
  4  8  2  0
  5  7  1  0
  5 12  2  0
  6 13  1  0
  6 39  1  0
  6 40  1  0
  7  6  1  0
  7 41  1  0
  7 42  1  0
  8  5  1  0
  9 10  2  0
  9 43  1  0
 10  2  1  0
 10 44  1  0
 11 45  1  0
 11 46  1  0
 11 47  1  0
 12 11  1  0
 12 15  1  0
 13 16  1  0
 14  9  1  0
 14 48  1  0
 15  4  1  0
 16 18  2  0
 17 19  2  0
 17 49  1  0
 18 17  1  0
 18 50  1  0
 19 20  1  0
 19 51  1  0
 20 21  2  0
 20 22  1  0
 21 16  1  0
 21 52  1  0
 22 53  1  0
 22 54  1  0
 23 22  1  0
 23 24  1  0
 23 55  1  0
 24 25  1  0
 24 56  1  0
 24 57  1  0
 25 26  1  0
 25 31  1  0
 26 27  1  0
 26 58  1  0
 26 59  1  0
 27 23  1  0
 27 28  1  0
 27 60  1  0
 28 29  2  0
 28 30  1  0
 30 61  1  0
 31 32  2  0
 32 33  1  0
 32 62  1  0
 33 34  2  0
 33 63  1  0
 34 35  1  0
 34 64  1  0
 35 36  2  0
 35 65  1  0
 36 31  1  0
 36 66  1  0
M  END
> <Name>
CHEMBL3398444

> <Clean Energy>
62.9589

> <chembl_id>
CHEMBL3398444

> <chembl_pref_name>
None

> <efficacy>
0.265

> <Forcefield>
MMFF

> <ForcefieldBase>
MMFF

> <ForcefieldFFML>
<?xml version="1.0" encoding="UTF-8"?>
<!DOCTYPE ffml SYSTEM "Ffml.dtd">
<ffml version="1.0">
<forcefield name="MMFF" derivedFrom="MMFF" base="MMFF">
<atomTypes>
<atomType
name="C100"
element="C"
mass="12.011"
annotation=""/>
<atomType
name="N101"
element="N"
mass="14.007"
annotation=""/>
<atomType
name="O102"
element="O"
mass="16"
annotation=""/>
<atomType
name="H103"
element="H"
mass="1.008"
annotation=""/>
</atomTypes>
<parameters>
</parameters>
</forcefield>
</ffml>

> <Initial Potential Energy>
135.42863

> <Initial RMS Gradient>
27.87863

> <Minimization Criteria>
CONJUG> Minimization exiting with gradient tolerance ( 0.0100000) satisfied.

> <CHARMm Energy>
50.8063

> <Potential Energy>
50.8063

> <RMS Gradient>
0.00863

> <Bond Energy>
6.99181

> <Angle Energy>
28.33346

> <STRBend>
-1.60561

> <Dihedral Energy>
1.01898

> <OOPLane>
0.28028

> <Van der Waals Energy>
64.14533

> <Electrostatic Energy>
-48.35795

> <Hydrogen Bond Energy>
0

> <Solvation Free Energy>
0

> <HasGasteigerCharges>
true

> <REMARK99>
REMARK  99  MacroMolecule created from Mol2 file
REMARK  99  CHEMBL3398444
REMARK  99  PROTEIN
REMARK  99  GASTEIGER
REMARK  99
REMARK  99

$$$$
CHEMBL197268
  SciTegic05292516403D

 56 56  0  0  0  0            999 V2000
   -4.2612  -17.5526   -0.3363 C   0  0
    5.1894  -17.9374   -1.5565 C   0  0
   -4.0374  -18.8507    0.1657 C   0  0
    6.0071  -17.4038   -0.8081 O   0  0
   -3.4815  -16.3602    0.1878 C   0  0  2  0  0  0
    5.5294  -18.2029   -2.8425 O   0  0
   -3.0849  -18.9664    1.1462 O   0  0
   -4.3362  -15.1982    0.1505 O   0  0
   -5.2194  -17.3777   -1.3528 C   0  0
    3.8041  -18.3239   -1.0737 C   0  0
   -4.7891  -19.9271   -0.3233 C   0  0
   -2.1879  -16.0544   -0.6065 C   0  0
   -2.5698  -20.2739    1.4018 C   0  0
    4.6509  -18.9020   -3.7324 C   0  0
    2.7518  -17.2334   -1.2950 C   0  0
   -1.0591  -17.0735   -0.3861 C   0  0
   -1.3222  -20.1206    2.2686 C   0  0
    0.5763  -21.3024    3.4336 C   0  0
   -0.6833  -21.4709    2.5844 C   0  0
    1.3799  -17.6711   -0.7570 C   0  0
    0.2796  -16.6253   -0.9969 C   0  0
   -5.9527  -18.4569   -1.8414 C   0  0
    1.2264  -22.6424    3.7384 C   0  0
   -5.7423  -19.7297   -1.3227 C   0  0
   -3.2428  -16.5054    1.2477 H   0  0
   -3.7859  -14.4634    0.4712 H   0  0
   -5.4074  -16.3835   -1.7545 H   0  0
    3.4940  -19.2777   -1.5098 H   0  0
    3.8946  -18.5273    0.0019 H   0  0
   -4.6555  -20.9314    0.0628 H   0  0
   -2.4144  -15.9780   -1.6778 H   0  0
   -1.8246  -15.0614   -0.3105 H   0  0
   -3.3197  -20.8676    1.9373 H   0  0
   -2.2969  -20.7707    0.4625 H   0  0
    5.1336  -18.9385   -4.7131 H   0  0
    3.6997  -18.3770   -3.8421 H   0  0
    4.5036  -19.9295   -3.3889 H   0  0
    3.0685  -16.3115   -0.7921 H   0  0
    2.6712  -16.9938   -2.3607 H   0  0
   -0.9189  -17.2243    0.6907 H   0  0
   -1.3428  -18.0382   -0.8213 H   0  0
   -0.6005  -19.4744    1.7537 H   0  0
   -1.5859  -19.5971    3.1961 H   0  0
    1.2975  -20.6658    2.9076 H   0  0
    0.3262  -20.8001    4.3755 H   0  0
   -0.4285  -21.9845    1.6491 H   0  0
   -1.4045  -22.1042    3.1152 H   0  0
    1.0871  -18.6148   -1.2340 H   0  0
    1.4636  -17.8696    0.3189 H   0  0
    0.5815  -15.6689   -0.5536 H   0  0
    0.1571  -16.4612   -2.0738 H   0  0
   -6.7094  -18.2972   -2.6065 H   0  0
    2.1248  -22.4982    4.3467 H   0  0
    1.5196  -23.1543    2.8161 H   0  0
    0.5424  -23.2945    4.2909 H   0  0
   -6.3399  -20.5650   -1.6829 H   0  0
  2 10  1  0
  3  1  1  0
  4  2  2  0
  5  1  1  0
  5 25  1  0
  6  2  1  0
  7  3  1  0
  8  5  1  0
  8 26  1  0
  9  1  2  0
  9 27  1  0
 10 15  1  0
 10 28  1  0
 10 29  1  0
 11  3  2  0
 11 24  1  0
 11 30  1  0
 12  5  1  0
 12 31  1  0
 12 32  1  0
 13  7  1  0
 13 33  1  0
 13 34  1  0
 14  6  1  0
 14 35  1  0
 14 36  1  0
 14 37  1  0
 15 20  1  0
 15 38  1  0
 15 39  1  0
 16 12  1  0
 16 40  1  0
 16 41  1  0
 17 13  1  0
 17 42  1  0
 17 43  1  0
 18 19  1  0
 18 44  1  0
 18 45  1  0
 19 17  1  0
 19 46  1  0
 19 47  1  0
 20 21  1  0
 20 48  1  0
 20 49  1  0
 21 16  1  0
 21 50  1  0
 21 51  1  0
 22  9  1  0
 22 52  1  0
 23 18  1  0
 23 53  1  0
 23 54  1  0
 23 55  1  0
 24 22  2  0
 24 56  1  0
M  END
> <Name>
CHEMBL197268

> <Clean Energy>
40.366901

> <chembl_id>
CHEMBL197268

> <chembl_pref_name>
None

> <efficacy>
0.42

> <Forcefield>
MMFF

> <ForcefieldBase>
MMFF

> <ForcefieldFFML>
<?xml version="1.0" encoding="UTF-8"?>
<!DOCTYPE ffml SYSTEM "Ffml.dtd">
<ffml version="1.0">
<forcefield name="MMFF" derivedFrom="MMFF" base="MMFF">
<atomTypes>
<atomType
name="C100"
element="C"
mass="12.011"
annotation=""/>
<atomType
name="O101"
element="O"
mass="16"
annotation=""/>
<atomType
name="H102"
element="H"
mass="1.008"
annotation=""/>
</atomTypes>
<parameters>
</parameters>
</forcefield>
</ffml>

> <Initial Potential Energy>
109.8405

> <Initial RMS Gradient>
22.97928

> <Minimization Criteria>
STEEPD> Minimization exiting with gradient tolerance ( 3.0000000) satisfied.

> <CHARMm Energy>
22.03888

> <Potential Energy>
22.03888

> <RMS Gradient>
0.05177

> <Bond Energy>
4.64215

> <Angle Energy>
15.96488

> <STRBend>
0.34167

> <Dihedral Energy>
-13.46082

> <OOPLane>
0.01237

> <Van der Waals Energy>
37.1429

> <Electrostatic Energy>
-22.60427

> <Hydrogen Bond Energy>
0

> <Solvation Free Energy>
0

> <HasGasteigerCharges>
true

> <REMARK99>
REMARK  99  MacroMolecule created from Mol2 file
REMARK  99  CHEMBL197268
REMARK  99  PROTEIN
REMARK  99  GASTEIGER
REMARK  99
REMARK  99

$$$$
CHEMBL2338486
  SciTegic05292516403D

 43 45  0  0  0  0            999 V2000
   37.3538  -27.1102    0.3010 C   0  0
   36.5555  -27.8688   -0.5514 C   0  0
   35.5347  -27.2420   -1.2729 C   0  0
   35.2552  -25.8895   -1.0691 C   0  0
   36.0070  -25.1409   -0.1633 C   0  0
   37.0684  -25.7537    0.5101 C   0  0
   34.5431  -22.8279   -0.5119 S   0  0
   35.6957  -23.8058    0.2130 N   0  0
   32.9734  -23.4526    0.0313 C   0  0
   31.8004  -23.0717   -0.6287 C   0  0
   30.5726  -23.6057   -0.2191 C   0  0
   30.5132  -24.4949    0.8511 C   0  0
   31.6738  -24.8556    1.5292 C   0  0
   32.9049  -24.3324    1.1243 C   0  0
   36.7572  -29.2233   -0.6871 O   0  0
   34.9751  -29.9075    0.8185 C   0  0
   35.6587  -29.9976   -0.3921 C   0  0
   35.2113  -30.9015   -1.3500 C   0  0
   34.0586  -31.6322   -1.0875 C   0  0
   33.4080  -31.4403    0.1243 C   0  0
   33.8451  -30.5988    1.0917 N   0  0
   33.4458  -32.7363   -2.2497 Cl  0  0
   34.6543  -23.0106   -1.9419 O   0  0
   34.7011  -21.5340    0.1151 O   0  0
   28.9943  -25.1376    1.3420 Cl  0  0
   31.7461  -21.9223   -1.9172 Cl  0  0
   38.6836  -27.8567    1.2048 S   0  0
   39.7641  -28.5369   -0.0255 C   0  0
   39.4076  -26.7795    1.8559 O   0  0
   38.1036  -28.9307    1.9864 O   0  0
   34.9259  -27.8042   -1.9782 H   0  0
   34.4316  -25.4599   -1.6316 H   0  0
   37.6598  -25.1818    1.2229 H   0  0
   36.3375  -23.2875    0.8120 H   0  0
   29.6577  -23.3212   -0.7314 H   0  0
   31.6278  -25.5406    2.3734 H   0  0
   33.7944  -24.6188    1.6792 H   0  0
   35.3155  -29.2558    1.6185 H   0  0
   35.7380  -31.0114   -2.2923 H   0  0
   32.4882  -31.9639    0.3624 H   0  0
   40.6566  -28.9087    0.4833 H   0  0
   40.0442  -27.7485   -0.7268 H   0  0
   39.2749  -29.3625   -0.5418 H   0  0
  1  2  1  0
  1  6  2  0
  1 27  1  0
  2  3  2  0
  2 15  1  0
  3  4  1  0
  3 31  1  0
  4  5  2  0
  4 32  1  0
  5  6  1  0
  5  8  1  0
  6 33  1  0
  7  8  1  0
  7  9  1  0
  7 23  2  0
  7 24  2  0
  8 34  1  0
  9 10  1  0
  9 14  2  0
 10 11  2  0
 10 26  1  0
 11 12  1  0
 11 35  1  0
 12 13  2  0
 12 25  1  0
 13 14  1  0
 13 36  1  0
 14 37  1  0
 15 17  1  0
 16 17  1  0
 16 21  2  0
 16 38  1  0
 17 18  2  0
 18 19  1  0
 18 39  1  0
 19 20  2  0
 19 22  1  0
 20 21  1  0
 20 40  1  0
 27 28  1  0
 27 29  2  0
 27 30  2  0
 28 41  1  0
 28 42  1  0
 28 43  1  0
M  END
> <Name>
CHEMBL2338486

> <Clean Energy>
37.946602

> <chembl_id>
CHEMBL2338486

> <chembl_pref_name>
None

> <efficacy>
0.15

> <Forcefield>
MMFF

> <ForcefieldBase>
MMFF

> <ForcefieldFFML>
<?xml version="1.0" encoding="UTF-8"?>
<!DOCTYPE ffml SYSTEM "Ffml.dtd">
<ffml version="1.0">
<forcefield name="MMFF" derivedFrom="MMFF" base="MMFF">
<atomTypes>
<atomType
name="C100"
element="C"
mass="12.011"
annotation=""/>
<atomType
name="S101"
element="S"
mass="32.066"
annotation=""/>
<atomType
name="N102"
element="N"
mass="14.007"
annotation=""/>
<atomType
name="O103"
element="O"
mass="16"
annotation=""/>
<atomType
name="Cl104"
element="Cl"
mass="35.453"
annotation=""/>
<atomType
name="H105"
element="H"
mass="1.008"
annotation=""/>
</atomTypes>
<parameters>
</parameters>
</forcefield>
</ffml>

> <Initial Potential Energy>
427.17074

> <Initial RMS Gradient>
131.59687

> <Minimization Criteria>
STEEPD> Minimization exiting with gradient tolerance ( 3.0000000) satisfied.

> <CHARMm Energy>
20.98689

> <Potential Energy>
20.98689

> <RMS Gradient>
0.02596

> <Bond Energy>
3.75304

> <Angle Energy>
16.53265

> <STRBend>
0.612

> <Dihedral Energy>
3.29163

> <OOPLane>
0.08669

> <Van der Waals Energy>
55.3658

> <Electrostatic Energy>
-58.65492

> <Hydrogen Bond Energy>
0

> <Solvation Free Energy>
0

> <HasGasteigerCharges>
true

> <REMARK99>
REMARK  99  MacroMolecule created from Mol2 file
REMARK  99  CHEMBL2338486
REMARK  99  PROTEIN
REMARK  99  GASTEIGER
REMARK  99
REMARK  99

$$$$
CHEMBL2331777
  SciTegic05292516403D

 47 49  0  0  0  0            999 V2000
   25.4980  -13.9142    0.7039 C   0  0
   24.2659  -13.3939    0.0428 C   0  0
   23.4639  -14.1433   -0.8239 C   0  0
   22.3603  -13.5524   -1.4512 C   0  0
   21.9997  -12.2392   -1.1503 C   0  0
   22.7389  -11.5024   -0.2280 C   0  0
   23.8737  -12.0811    0.3545 C   0  0
   25.9118  -13.3778    1.7264 O   0  0
   26.1396  -14.9714    0.0977 N   0  0
   27.3544  -15.5471    0.6376 C   0  0
   28.5850  -14.7719    0.2036 C   0  0
   21.1851   -9.2318   -0.4173 S   0  0
   22.3861  -10.2012    0.2164 N   0  0
   19.6748   -9.9985    0.1209 C   0  0
   18.7143  -10.3803   -0.8209 C   0  0
   17.5108  -10.9413   -0.3900 C   0  0
   17.2674  -11.1006    0.9756 C   0  0
   18.2262  -10.7162    1.9160 C   0  0
   19.4366  -10.1633    1.4890 C   0  0
   23.7279  -15.4750   -1.0657 O   0  0
   22.2978  -16.3460    0.6992 C   0  0
   22.7490  -16.3329   -0.6186 C   0  0
   22.1919  -17.2276   -1.5263 C   0  0
   21.1641  -18.0591   -1.0973 C   0  0
   20.7475  -17.9777    0.2245 C   0  0
   21.3008  -17.1468    1.1400 N   0  0
   20.4169  -19.1534   -2.1871 Cl  0  0
   21.2412   -9.2914   -1.8619 O   0  0
   21.2774   -7.9717    0.2880 O   0  0
   15.4515  -11.8944    1.6116 I   0  0
   21.7596  -14.1159   -2.1614 H   0  0
   21.1308  -11.8300   -1.6541 H   0  0
   24.4685  -11.5091    1.0653 H   0  0
   25.7594  -15.3616   -0.7562 H   0  0
   27.2871  -15.5684    1.7305 H   0  0
   27.4137  -16.5785    0.2766 H   0  0
   29.4899  -15.2364    0.6071 H   0  0
   28.5456  -13.7359    0.5556 H   0  0
   28.6676  -14.7487   -0.8880 H   0  0
   22.9829   -9.7222    0.8887 H   0  0
   18.8829  -10.2302   -1.8854 H   0  0
   16.7660  -11.2302   -1.1276 H   0  0
   18.0352  -10.8261    2.9813 H   0  0
   20.1753   -9.8496    2.2224 H   0  0
   22.7242  -15.6944    1.4567 H   0  0
   22.5358  -17.2530   -2.5553 H   0  0
   19.9319  -18.5876    0.5989 H   0  0
  1  2  1  0
  1  8  2  0
  1  9  1  0
  2  3  1  0
  2  7  2  0
  3  4  2  0
  3 20  1  0
  4  5  1  0
  4 31  1  0
  5  6  2  0
  5 32  1  0
  6  7  1  0
  6 13  1  0
  7 33  1  0
  9 10  1  0
  9 34  1  0
 10 11  1  0
 10 35  1  0
 10 36  1  0
 11 37  1  0
 11 38  1  0
 11 39  1  0
 12 13  1  0
 12 14  1  0
 12 28  2  0
 12 29  2  0
 13 40  1  0
 14 15  1  0
 14 19  2  0
 15 16  2  0
 15 41  1  0
 16 17  1  0
 16 42  1  0
 17 18  2  0
 17 30  1  0
 18 19  1  0
 18 43  1  0
 19 44  1  0
 20 22  1  0
 21 22  1  0
 21 26  2  0
 21 45  1  0
 22 23  2  0
 23 24  1  0
 23 46  1  0
 24 25  2  0
 24 27  1  0
 25 26  1  0
 25 47  1  0
M  END
> <Name>
CHEMBL2331777

> <Clean Energy>
32.0849

> <chembl_id>
CHEMBL2331777

> <chembl_pref_name>
None

> <efficacy>
0.4

> <Forcefield>
MMFF

> <ForcefieldBase>
MMFF

> <ForcefieldFFML>
<?xml version="1.0" encoding="UTF-8"?>
<!DOCTYPE ffml SYSTEM "Ffml.dtd">
<ffml version="1.0">
<forcefield name="MMFF" derivedFrom="MMFF" base="MMFF">
<atomTypes>
<atomType
name="C100"
element="C"
mass="12.011"
annotation=""/>
<atomType
name="O101"
element="O"
mass="16"
annotation=""/>
<atomType
name="N102"
element="N"
mass="14.007"
annotation=""/>
<atomType
name="S103"
element="S"
mass="32.066"
annotation=""/>
<atomType
name="Cl104"
element="Cl"
mass="35.453"
annotation=""/>
<atomType
name="I105"
element="I"
mass="126.905"
annotation=""/>
<atomType
name="H106"
element="H"
mass="1.008"
annotation=""/>
</atomTypes>
<parameters>
</parameters>
</forcefield>
</ffml>

> <Initial Potential Energy>
706.49247

> <Initial RMS Gradient>
348.0767

> <Minimization Criteria>
STEEPD> Minimization exiting with gradient tolerance ( 3.0000000) satisfied.

> <CHARMm Energy>
19.67699

> <Potential Energy>
19.67699

> <RMS Gradient>
0.10028

> <Bond Energy>
4.53165

> <Angle Energy>
15.10365

> <STRBend>
0.59613

> <Dihedral Energy>
1.90936

> <OOPLane>
0.06101

> <Van der Waals Energy>
57.69105

> <Electrostatic Energy>
-60.21587

> <Hydrogen Bond Energy>
0

> <Solvation Free Energy>
0

> <HasGasteigerCharges>
true

> <REMARK99>
REMARK  99  MacroMolecule created from Mol2 file
REMARK  99  CHEMBL2331777
REMARK  99  PROTEIN
REMARK  99  GASTEIGER
REMARK  99
REMARK  99

$$$$
CHEMBL360420
  SciTegic05292516403D

 41 42  0  0  0  0            999 V2000
    4.7914    2.1310   -1.1850 C   0  0
    6.6478   -4.6532    0.0424 C   0  0
    7.0801   -6.0577   -0.1207 C   0  0
    4.3258   -0.1068   -0.1529 O   0  0
    4.6758    3.3360   -1.3601 O   0  0
    4.0558    1.2985   -0.1215 C   0  0  2  0  0  0
    6.8733   -3.9629    1.2442 C   0  0
    6.0130   -3.9512   -0.9954 C   0  0
    6.1883   -7.0546   -0.5571 C   0  0
    8.4037   -6.4444    0.1652 C   0  0
    5.6301    1.4138   -1.9648 O   0  0
    7.9151   -8.7439   -0.3999 C   0  0
    5.5384   -0.4580    0.5182 C   0  0
    5.8615   -1.9279    0.3585 C   0  0
    8.8191   -7.7738    0.0265 C   0  0
    6.6010   -8.3865   -0.6956 C   0  0
    5.6318   -2.6080   -0.8431 C   0  0
    6.4917   -2.6228    1.3996 C   0  0
    8.4225  -10.3813   -0.5609 Cl  0  0
    2.5456    1.4829   -0.3321 C   0  0
    1.7213    0.8295    0.7813 C   0  0
    0.2317    1.0556    0.5749 C   0  0
    4.3417    1.7020    0.8583 H   0  0
    7.3515   -4.4685    2.0811 H   0  0
    5.8273   -4.4389   -1.9504 H   0  0
    5.1540   -6.7965   -0.7787 H   0  0
    9.1265   -5.6976    0.4904 H   0  0
    5.9791    2.0797   -2.5952 H   0  0
    6.3803    0.1243    0.1281 H   0  0
    5.4152   -0.2247    1.5826 H   0  0
    9.8457   -8.0554    0.2562 H   0  0
    5.8955   -9.1486   -1.0232 H   0  0
    5.1601   -2.0900   -1.6766 H   0  0
    6.6992   -2.1260    2.3450 H   0  0
    2.3012    2.5511   -0.3845 H   0  0
    2.2550    1.0399   -1.2937 H   0  0
    1.9148   -0.2487    0.8153 H   0  0
    2.0163    1.2434    1.7525 H   0  0
   -0.3387    0.5823    1.3802 H   0  0
   -0.1019    0.6265   -0.3753 H   0  0
   -0.0067    2.1239    0.5725 H   0  0
  2  7  1  0
  2  8  2  0
  3  2  1  0
  4  6  1  0
  5  1  2  0
  6  1  1  0
  6 20  1  0
  6 23  1  0
  7 18  2  0
  7 24  1  0
  8 17  1  0
  8 25  1  0
  9  3  2  0
  9 26  1  0
 10  3  1  0
 10 27  1  0
 11  1  1  0
 11 28  1  0
 12 15  1  0
 12 16  2  0
 13  4  1  0
 13 29  1  0
 13 30  1  0
 14 13  1  0
 15 10  2  0
 15 31  1  0
 16  9  1  0
 16 32  1  0
 17 14  2  0
 17 33  1  0
 18 14  1  0
 18 34  1  0
 19 12  1  0
 20 35  1  0
 20 36  1  0
 21 20  1  0
 21 37  1  0
 21 38  1  0
 22 21  1  0
 22 39  1  0
 22 40  1  0
 22 41  1  0
M  END
> <Name>
CHEMBL360420

> <Clean Energy>
16.2642

> <chembl_id>
CHEMBL360420

> <chembl_pref_name>
None

> <efficacy>
0.106

> <Forcefield>
MMFF

> <ForcefieldBase>
MMFF

> <ForcefieldFFML>
<?xml version="1.0" encoding="UTF-8"?>
<!DOCTYPE ffml SYSTEM "Ffml.dtd">
<ffml version="1.0">
<forcefield name="MMFF" derivedFrom="MMFF" base="MMFF">
<atomTypes>
<atomType
name="C100"
element="C"
mass="12.011"
annotation=""/>
<atomType
name="O101"
element="O"
mass="16"
annotation=""/>
<atomType
name="Cl102"
element="Cl"
mass="35.453"
annotation=""/>
<atomType
name="H103"
element="H"
mass="1.008"
annotation=""/>
</atomTypes>
<parameters>
</parameters>
</forcefield>
</ffml>

> <Initial Potential Energy>
128.99382

> <Initial RMS Gradient>
29.52946

> <Minimization Criteria>
CONJUG> Minimization exiting with gradient tolerance ( 0.0100000) satisfied.

> <CHARMm Energy>
52.23284

> <Potential Energy>
52.23284

> <RMS Gradient>
0.00985

> <Bond Energy>
5.65966

> <Angle Energy>
5.9905

> <STRBend>
0.01076

> <Dihedral Energy>
4.95781

> <OOPLane>
0.04213

> <Van der Waals Energy>
38.98413

> <Electrostatic Energy>
-3.41215

> <Hydrogen Bond Energy>
0

> <Solvation Free Energy>
0

> <HasGasteigerCharges>
true

> <REMARK99>
REMARK  99  MacroMolecule created from Mol2 file
REMARK  99  CHEMBL360420
REMARK  99  PROTEIN
REMARK  99  GASTEIGER
REMARK  99
REMARK  99

$$$$
CHEMBL2204689
  SciTegic05292516403D

 50 52  0  0  0  0            999 V2000
   14.2826  -22.3731   -0.6891 C   0  0
   13.4846  -23.1600    0.3826 C   0  0
   12.8375  -24.4434   -0.1759 C   0  0
   14.3371  -21.1531   -0.7716 O   0  0
   15.0256  -23.1370   -1.5310 O   0  0
   12.5447  -22.3321    1.0993 O   0  0
   11.3037  -22.1966    0.5505 C   0  0
   11.0727  -21.4504   -0.6008 C   0  0
    9.7719  -21.3203   -1.0922 C   0  0
    8.6959  -21.9194   -0.4229 C   0  0
    8.9440  -22.6533    0.7465 C   0  0
   10.2407  -22.7758    1.2400 C   0  0
    7.2849  -21.7685   -0.9370 C   0  0
    6.4790  -21.2720    0.1321 O   0  0
    5.1429  -21.1114   -0.0977 C   0  0
    4.4086  -20.7139    1.0251 C   0  0
    3.0313  -20.5073    0.9399 C   0  0
    2.3878  -20.6754   -0.2849 C   0  0
    3.1087  -21.0936   -1.4036 C   0  0
    4.4878  -21.3049   -1.3137 C   0  0
    1.0297  -20.5211   -0.4228 O   0  0
    0.4701  -19.3007   -0.1062 C   0  0
    1.1396  -18.0773   -0.1901 C   0  0
    0.4636  -16.8910    0.1125 C   0  0
   -0.8820  -16.9214    0.4835 C   0  0
   -1.5571  -18.1398    0.5521 C   0  0
   -0.8812  -19.3260    0.2545 C   0  0
   14.5106  -23.5698    1.4550 C   0  0
   12.1753  -24.9081    0.5633 H   0  0
   13.5805  -25.1955   -0.4605 H   0  0
   12.2395  -24.2303   -1.0690 H   0  0
   15.0035  -24.0980   -1.3792 H   0  0
   11.8812  -20.9342   -1.1079 H   0  0
    9.6002  -20.7209   -1.9838 H   0  0
    8.1167  -23.1037    1.2919 H   0  0
   10.4199  -23.3204    2.1624 H   0  0
    7.2637  -21.0616   -1.7751 H   0  0
    6.9276  -22.7502   -1.2711 H   0  0
    4.9193  -20.5687    1.9744 H   0  0
    2.4697  -20.2160    1.8231 H   0  0
    2.5949  -21.2471   -2.3488 H   0  0
    5.0144  -21.6150   -2.2094 H   0  0
    2.1811  -18.0270   -0.4967 H   0  0
    0.9950  -15.9447    0.0529 H   0  0
   -1.4068  -15.9964    0.7134 H   0  0
   -2.6083  -18.1641    0.8330 H   0  0
   -1.4059  -20.2763    0.3031 H   0  0
   14.0218  -24.1010    2.2801 H   0  0
   14.9899  -22.6855    1.8924 H   0  0
   15.2995  -24.2114    1.0477 H   0  0
  1  2  1  0
  1  4  2  0
  1  5  1  0
  2  3  1  0
  2  6  1  0
  2 28  1  0
  3 29  1  0
  3 30  1  0
  3 31  1  0
  5 32  1  0
  6  7  1  0
  7  8  1  0
  7 12  2  0
  8  9  2  0
  8 33  1  0
  9 10  1  0
  9 34  1  0
 10 11  2  0
 10 13  1  0
 11 12  1  0
 11 35  1  0
 12 36  1  0
 13 14  1  0
 13 37  1  0
 13 38  1  0
 14 15  1  0
 15 16  1  0
 15 20  2  0
 16 17  2  0
 16 39  1  0
 17 18  1  0
 17 40  1  0
 18 19  2  0
 18 21  1  0
 19 20  1  0
 19 41  1  0
 20 42  1  0
 21 22  1  0
 22 23  1  0
 22 27  2  0
 23 24  2  0
 23 43  1  0
 24 25  1  0
 24 44  1  0
 25 26  2  0
 25 45  1  0
 26 27  1  0
 26 46  1  0
 27 47  1  0
 28 48  1  0
 28 49  1  0
 28 50  1  0
M  END
> <Name>
CHEMBL2204689

> <Clean Energy>
27.466101

> <chembl_id>
CHEMBL2204689

> <chembl_pref_name>
None

> <efficacy>
0.12345679

> <Forcefield>
MMFF

> <ForcefieldBase>
MMFF

> <ForcefieldFFML>
<?xml version="1.0" encoding="UTF-8"?>
<!DOCTYPE ffml SYSTEM "Ffml.dtd">
<ffml version="1.0">
<forcefield name="MMFF" derivedFrom="MMFF" base="MMFF">
<atomTypes>
<atomType
name="C100"
element="C"
mass="12.011"
annotation=""/>
<atomType
name="O101"
element="O"
mass="16"
annotation=""/>
<atomType
name="H102"
element="H"
mass="1.008"
annotation=""/>
</atomTypes>
<parameters>
</parameters>
</forcefield>
</ffml>

> <Initial Potential Energy>
224.20143

> <Initial RMS Gradient>
39.53513

> <Minimization Criteria>
STEEPD> Minimization exiting with gradient tolerance ( 3.0000000) satisfied.

> <CHARMm Energy>
100.58756

> <Potential Energy>
100.58756

> <RMS Gradient>
0.04692

> <Bond Energy>
5.76032

> <Angle Energy>
20.69654

> <STRBend>
0.4774

> <Dihedral Energy>
13.56573

> <OOPLane>
0.21977

> <Van der Waals Energy>
62.34337

> <Electrostatic Energy>
-2.47558

> <Hydrogen Bond Energy>
0

> <Solvation Free Energy>
0

> <HasGasteigerCharges>
true

> <REMARK99>
REMARK  99  MacroMolecule created from Mol2 file
REMARK  99  CHEMBL2204689
REMARK  99  PROTEIN
REMARK  99  GASTEIGER
REMARK  99
REMARK  99

$$$$
CHEMBL1801737
  SciTegic05292516403D

 64 69  0  0  0  0            999 V2000
    9.8404  -11.4081   -0.6238 C   0  0
   10.4211  -10.1421   -0.3675 C   0  0
   10.5783  -12.6637   -0.8422 C   0  0
   11.8626   -9.8595   -0.2747 C   0  0
   12.5694   -9.3908   -1.4058 C   0  0
   12.5231   -9.9270    0.9646 C   0  0
   13.8920   -8.9427   -1.3047 C   0  0
    8.4300  -11.4915   -0.6781 C   0  0
    9.5682   -9.0287   -0.1773 C   0  0
    7.6103  -10.3769   -0.4880 C   0  0
    8.1820   -9.1418   -0.2361 C   0  0
   14.5024   -8.9585   -0.0598 C   0  0
   13.8374   -9.4877    1.0533 C   0  0
   14.6801   -9.3790    2.2870 C   0  0
   16.0705   -9.0949    1.6996 C   0  0
   15.8615   -8.4294    0.3213 C   0  0  2  0  0  0
   16.0123   -6.9752    0.3553 N   0  0
   15.6895   -4.7703    0.4495 N   0  0
   17.2584   -6.3826    0.2419 C   0  0
   15.0925   -5.9488    0.5220 C   0  0
   17.0230   -5.0232    0.2881 C   0  0
   19.5017   -6.1457    0.0304 C   0  0
   18.4501   -6.9974    0.1223 N   0  0
   18.1146   -4.1405    0.1868 C   0  0
   19.4017   -4.7345    0.0599 C   0  0
   13.6222   -6.1065    0.7586 C   0  0
   17.9147   -2.6524    0.2446 C   0  0
   12.9397   -4.7922    1.1219 C   0  0
   11.9379  -12.8237   -0.8708 N   0  0
   12.2635  -14.1025   -1.0950 N   0  0
   11.1064  -14.7351   -1.2067 N   0  0
   10.0543  -13.8659   -1.0535 N   0  0
   20.8354   -6.8361   -0.0874 C   0  0
   20.6396   -3.8623   -0.0611 C   0  0
   20.9630   -3.5165   -1.5083 C   0  0
   12.0633   -9.3235   -2.3694 H   0  0
   11.9956  -10.2634    1.8554 H   0  0
   14.4049   -8.5420   -2.1752 H   0  0
    7.9539  -12.4508   -0.8751 H   0  0
    9.9933   -8.0455    0.0235 H   0  0
    6.5304  -10.4788   -0.5379 H   0  0
    7.5657   -8.2608   -0.0846 H   0  0
   14.3379   -8.5473    2.9102 H   0  0
   14.6778  -10.3041    2.8706 H   0  0
   16.6909   -8.5093    2.3863 H   0  0
   16.5840  -10.0554    1.5486 H   0  0
   16.6021   -8.8131   -0.3918 H   0  0
   13.1413   -6.4938   -0.1436 H   0  0
   13.4484   -6.8023    1.5821 H   0  0
   18.3698   -2.2432    1.1520 H   0  0
   16.8510   -2.3925    0.2633 H   0  0
   18.3502   -2.1671   -0.6334 H   0  0
   11.8717   -4.9576    1.2977 H   0  0
   13.0379   -4.0555    0.3171 H   0  0
   13.3704   -4.3601    2.0317 H   0  0
   12.6781  -12.1480   -0.7519 H   0  0
   21.3629   -6.5144   -0.9892 H   0  0
   20.7050   -7.9218   -0.1546 H   0  0
   21.4498   -6.6325    0.7947 H   0  0
   20.5130   -2.9404    0.5178 H   0  0
   21.5021   -4.3570    0.3991 H   0  0
   21.8542   -2.8826   -1.5549 H   0  0
   20.1400   -2.9763   -1.9867 H   0  0
   21.1582   -4.4154   -2.1011 H   0  0
  1  2  1  0
  2  4  1  0
  3  1  1  0
  3 29  1  0
  4  5  2  0
  5  7  1  0
  5 36  1  0
  6  4  1  0
  6 13  2  0
  6 37  1  0
  7 12  2  0
  7 38  1  0
  8  1  2  0
  8 10  1  0
  8 39  1  0
  9  2  2  0
  9 40  1  0
 10 11  2  0
 10 41  1  0
 11  9  1  0
 11 42  1  0
 12 13  1  0
 13 14  1  0
 14 15  1  0
 14 43  1  0
 14 44  1  0
 15 16  1  0
 15 45  1  0
 15 46  1  0
 16 12  1  0
 16 17  1  0
 16 47  1  0
 17 19  1  0
 18 20  2  0
 18 21  1  0
 19 21  2  0
 19 23  1  0
 20 17  1  0
 21 24  1  0
 22 33  1  0
 23 22  2  0
 24 25  2  0
 25 22  1  0
 25 34  1  0
 26 20  1  0
 26 48  1  0
 26 49  1  0
 27 24  1  0
 27 50  1  0
 27 51  1  0
 27 52  1  0
 28 26  1  0
 28 53  1  0
 28 54  1  0
 28 55  1  0
 29 30  1  0
 29 56  1  0
 30 31  2  0
 31 32  1  0
 32  3  2  0
 33 57  1  0
 33 58  1  0
 33 59  1  0
 34 35  1  0
 34 60  1  0
 34 61  1  0
 35 62  1  0
 35 63  1  0
 35 64  1  0
M  END
> <Name>
CHEMBL1801737

> <Clean Energy>
103.158997

> <chembl_id>
CHEMBL1801737

> <chembl_pref_name>
None

> <efficacy>
0.27173913

> <Forcefield>
MMFF

> <ForcefieldBase>
MMFF

> <ForcefieldFFML>
<?xml version="1.0" encoding="UTF-8"?>
<!DOCTYPE ffml SYSTEM "Ffml.dtd">
<ffml version="1.0">
<forcefield name="MMFF" derivedFrom="MMFF" base="MMFF">
<atomTypes>
<atomType
name="C100"
element="C"
mass="12.011"
annotation=""/>
<atomType
name="N101"
element="N"
mass="14.007"
annotation=""/>
<atomType
name="H102"
element="H"
mass="1.008"
annotation=""/>
</atomTypes>
<parameters>
</parameters>
</forcefield>
</ffml>

> <Initial Potential Energy>
268.12494

> <Initial RMS Gradient>
37.41048

> <Minimization Criteria>
STEEPD> Minimization exiting with gradient tolerance ( 3.0000000) satisfied.

> <CHARMm Energy>
92.97559

> <Potential Energy>
92.97559

> <RMS Gradient>
0.0845

> <Bond Energy>
9.65774

> <Angle Energy>
18.58797

> <STRBend>
-0.18591

> <Dihedral Energy>
3.91678

> <OOPLane>
0.16778

> <Van der Waals Energy>
61.08311

> <Electrostatic Energy>
-0.25186

> <Hydrogen Bond Energy>
0

> <Solvation Free Energy>
0

> <HasGasteigerCharges>
true

> <REMARK99>
REMARK  99  MacroMolecule created from Mol2 file
REMARK  99  CHEMBL1801737
REMARK  99  PROTEIN
REMARK  99  GASTEIGER
REMARK  99
REMARK  99

$$$$
CHEMBL462378
  SciTegic05292516403D

 61 64  0  0  0  0            999 V2000
   11.4034  -23.0874   -0.4213 C   0  0
   11.1916  -24.3833   -0.8674 C   0  0
   12.1904  -25.3347   -0.6795 C   0  0
   12.5350  -22.6346    0.1612 N   0  0
   13.4871  -23.5832    0.3057 C   0  0
   13.3797  -24.9221   -0.0565 C   0  0
   14.5917  -25.5688    0.3207 C   0  0
   15.3708  -24.6230    0.9883 C   0  0
   14.7488  -23.3930    0.8291 N   0  0
   16.6345  -24.8099    1.7588 C   0  0
   15.2913  -22.0861    1.2039 C   0  0
   16.5666  -21.7496    0.4632 C   0  0
   17.8155  -21.7345    1.1127 C   0  0
   19.0056  -21.4674    0.4148 C   0  0
   18.9435  -21.1665   -0.9435 C   0  0
   17.7070  -21.1566   -1.5975 C   0  0
   16.5386  -21.4506   -0.8983 C   0  0
   14.9090  -26.9778    0.1059 C   0  0
   14.0704  -27.8694    0.2140 O   0  0
   16.2947  -27.3334   -0.2884 C   0  0
   16.8874  -28.4632    0.2805 C   0  0
   18.2052  -28.7974   -0.0424 C   0  0
   18.9297  -28.0127   -0.9419 C   0  0
   18.3190  -26.9053   -1.5363 C   0  0
   17.0051  -26.5619   -1.2151 C   0  0
   20.1377  -21.5506    1.1767 O   0  0
   21.4303  -21.3161    0.5806 C   0  0  2  0  0  0
   22.4593  -22.1073    1.4095 C   0  0
   21.7591  -19.8317    0.6309 C   0  0
   21.8663  -23.0801    2.1554 O   0  0
   23.6712  -21.9251    1.3992 O   0  0
   20.2237  -28.2229   -1.3276 O   0  0
   20.9493  -29.2124   -0.6101 C   0  0
   10.3564  -22.2133   -0.6422 O   0  0
   15.3736  -21.4354   -1.5585 F   0  0
   10.4674  -20.9887    0.0708 C   0  0
   10.2523  -24.6549   -1.3384 H   0  0
   12.0406  -26.3663   -0.9864 H   0  0
   16.6881  -24.1288    2.6128 H   0  0
   17.5078  -24.6513    1.1204 H   0  0
   16.6933  -25.8225    2.1708 H   0  0
   14.5395  -21.3140    1.0075 H   0  0
   15.4499  -22.1091    2.2881 H   0  0
   17.8704  -21.9502    2.1787 H   0  0
   19.8259  -20.9307   -1.5291 H   0  0
   17.6452  -20.9228   -2.6568 H   0  0
   16.3320  -29.0756    0.9872 H   0  0
   18.6322  -29.6782    0.4237 H   0  0
   18.8761  -26.3047   -2.2519 H   0  0
   16.5496  -25.6963   -1.6904 H   0  0
   21.4879  -21.7271   -0.4329 H   0  0
   22.7532  -19.6300    0.2196 H   0  0
   21.7368  -19.4622    1.6624 H   0  0
   21.0270  -19.2442    0.0682 H   0  0
   20.8907  -23.0229    2.0589 H   0  0
   21.9816  -29.1982   -0.9731 H   0  0
   20.5445  -30.2116   -0.8005 H   0  0
   20.9706  -28.9918    0.4626 H   0  0
    9.5534  -20.4139   -0.1059 H   0  0
   11.3119  -20.3949   -0.2949 H   0  0
   10.5503  -21.1619    1.1494 H   0  0
  1  2  2  0
  1 34  1  0
  2  3  1  0
  2 37  1  0
  3  6  2  0
  3 38  1  0
  4  1  1  0
  5  4  2  0
  5  6  1  0
  6  7  1  0
  7  8  2  0
  7 18  1  0
  8  9  1  0
  8 10  1  0
  9  5  1  0
  9 11  1  0
 10 39  1  0
 10 40  1  0
 10 41  1  0
 11 12  1  0
 11 42  1  0
 11 43  1  0
 12 13  2  0
 13 14  1  0
 13 44  1  0
 14 15  2  0
 14 26  1  0
 15 16  1  0
 15 45  1  0
 16 17  2  0
 16 46  1  0
 17 12  1  0
 17 35  1  0
 18 19  2  0
 18 20  1  0
 20 21  2  0
 21 22  1  0
 21 47  1  0
 22 23  2  0
 22 48  1  0
 23 24  1  0
 23 32  1  0
 24 25  2  0
 24 49  1  0
 25 20  1  0
 25 50  1  0
 26 27  1  0
 27 28  1  0
 27 29  1  0
 27 51  1  0
 28 30  1  0
 28 31  2  0
 29 52  1  0
 29 53  1  0
 29 54  1  0
 30 55  1  0
 32 33  1  0
 33 56  1  0
 33 57  1  0
 33 58  1  0
 34 36  1  0
 36 59  1  0
 36 60  1  0
 36 61  1  0
M  END
> <Name>
CHEMBL462378

> <Clean Energy>
90.0644

> <chembl_id>
CHEMBL462378

> <chembl_pref_name>
None

> <efficacy>
0.14

> <Forcefield>
MMFF

> <ForcefieldBase>
MMFF

> <ForcefieldFFML>
<?xml version="1.0" encoding="UTF-8"?>
<!DOCTYPE ffml SYSTEM "Ffml.dtd">
<ffml version="1.0">
<forcefield name="MMFF" derivedFrom="MMFF" base="MMFF">
<atomTypes>
<atomType
name="C100"
element="C"
mass="12.011"
annotation=""/>
<atomType
name="N101"
element="N"
mass="14.007"
annotation=""/>
<atomType
name="O102"
element="O"
mass="16"
annotation=""/>
<atomType
name="F103"
element="F"
mass="18.998"
annotation=""/>
<atomType
name="H104"
element="H"
mass="1.008"
annotation=""/>
</atomTypes>
<parameters>
</parameters>
</forcefield>
</ffml>

> <Initial Potential Energy>
309.60793

> <Initial RMS Gradient>
37.0783

> <Minimization Criteria>
STEEPD> Minimization exiting with gradient tolerance ( 3.0000000) satisfied.

> <CHARMm Energy>
95.5409

> <Potential Energy>
95.5409

> <RMS Gradient>
0.04797

> <Bond Energy>
6.31949

> <Angle Energy>
22.87832

> <STRBend>
1.12468

> <Dihedral Energy>
8.42917

> <OOPLane>
0.06513

> <Van der Waals Energy>
69.35448

> <Electrostatic Energy>
-12.63036

> <Hydrogen Bond Energy>
0

> <Solvation Free Energy>
0

> <HasGasteigerCharges>
true

> <REMARK99>
REMARK  99  MacroMolecule created from Mol2 file
REMARK  99  CHEMBL462378
REMARK  99  PROTEIN
REMARK  99  GASTEIGER
REMARK  99
REMARK  99

$$$$
CHEMBL369890
  SciTegic05292516403D

 41 42  0  0  0  0            999 V2000
    4.8132    2.1597    1.0533 C   0  0
    6.6448   -4.6483   -0.0705 C   0  0
    7.0887   -6.0465    0.1142 C   0  0
    4.3205   -0.1006    0.0854 O   0  0
    4.6970    3.3673    1.2092 O   0  0
    4.0497    1.3038    0.0288 C   0  0  1  0  0  0
    6.8118   -3.9942   -1.3018 C   0  0
    6.0581   -3.9156    0.9744 C   0  0
    6.2225   -7.0316    0.6228 C   0  0
    8.3985   -6.4389   -0.2230 C   0  0
    5.6800    1.4616    1.8195 O   0  0
    7.9458   -8.7214    0.4336 C   0  0
    5.5099   -0.4685   -0.6173 C   0  0
    5.8407   -1.9334   -0.4305 C   0  0
    8.8249   -7.7626   -0.0643 C   0  0
    6.6461   -8.3580    0.7813 C   0  0
    5.6681   -2.5775    0.8003 C   0  0
    6.4215   -2.6593   -1.4790 C   0  0
    8.4661  -10.3522    0.6190 Cl  0  0
    2.5455    1.4938    0.2741 C   0  0
    1.6932    0.8187   -0.8046 C   0  0
    0.2093    1.0507   -0.5660 C   0  0
    4.3100    1.6850   -0.9670 H   0  0
    7.2508   -4.5246   -2.1449 H   0  0
    5.9183   -4.3746    1.9512 H   0  0
    5.1990   -6.7691    0.8860 H   0  0
    9.1023   -5.7008   -0.6048 H   0  0
    6.0449    2.1415    2.4257 H   0  0
    5.3499   -0.2629   -1.6825 H   0  0
    6.3637    0.1247   -0.2720 H   0  0
    9.8403   -8.0488   -0.3345 H   0  0
    5.9599   -9.1115    1.1650 H   0  0
    5.2352   -2.0347    1.6390 H   0  0
    6.5834   -2.1911   -2.4476 H   0  0
    2.2793    1.0708    1.2517 H   0  0
    2.3027    2.5630    0.3109 H   0  0
    1.9641    1.2124   -1.7910 H   0  0
    1.8851   -0.2601   -0.8213 H   0  0
   -0.3811    0.5619   -1.3473 H   0  0
   -0.0282    2.1193   -0.5796 H   0  0
   -0.1011    0.6416    0.4007 H   0  0
  2  7  1  0
  2  8  2  0
  3  2  1  0
  4  6  1  0
  5  1  2  0
  6  1  1  0
  6 20  1  0
  6 23  1  0
  7 18  2  0
  7 24  1  0
  8 17  1  0
  8 25  1  0
  9  3  2  0
  9 26  1  0
 10  3  1  0
 10 27  1  0
 11  1  1  0
 11 28  1  0
 12 15  1  0
 12 16  2  0
 13  4  1  0
 13 29  1  0
 13 30  1  0
 14 13  1  0
 15 10  2  0
 15 31  1  0
 16  9  1  0
 16 32  1  0
 17 14  2  0
 17 33  1  0
 18 14  1  0
 18 34  1  0
 19 12  1  0
 20 35  1  0
 20 36  1  0
 21 20  1  0
 21 37  1  0
 21 38  1  0
 22 21  1  0
 22 39  1  0
 22 40  1  0
 22 41  1  0
M  END
> <Name>
CHEMBL369890

> <Clean Energy>
16.2421

> <chembl_id>
CHEMBL369890

> <chembl_pref_name>
None

> <efficacy>
0.115

> <Forcefield>
MMFF

> <ForcefieldBase>
MMFF

> <ForcefieldFFML>
<?xml version="1.0" encoding="UTF-8"?>
<!DOCTYPE ffml SYSTEM "Ffml.dtd">
<ffml version="1.0">
<forcefield name="MMFF" derivedFrom="MMFF" base="MMFF">
<atomTypes>
<atomType
name="C100"
element="C"
mass="12.011"
annotation=""/>
<atomType
name="O101"
element="O"
mass="16"
annotation=""/>
<atomType
name="Cl102"
element="Cl"
mass="35.453"
annotation=""/>
<atomType
name="H103"
element="H"
mass="1.008"
annotation=""/>
</atomTypes>
<parameters>
</parameters>
</forcefield>
</ffml>

> <Initial Potential Energy>
132.0401

> <Initial RMS Gradient>
29.60794

> <Minimization Criteria>
CONJUG> Minimization exiting with gradient tolerance ( 0.0100000) satisfied.

> <CHARMm Energy>
52.23317

> <Potential Energy>
52.23317

> <RMS Gradient>
0.00866

> <Bond Energy>
5.66713

> <Angle Energy>
5.99128

> <STRBend>
0.01199

> <Dihedral Energy>
4.98192

> <OOPLane>
0.04299

> <Van der Waals Energy>
38.95799

> <Electrostatic Energy>
-3.42013

> <Hydrogen Bond Energy>
0

> <Solvation Free Energy>
0

> <HasGasteigerCharges>
true

> <REMARK99>
REMARK  99  MacroMolecule created from Mol2 file
REMARK  99  CHEMBL369890
REMARK  99  PROTEIN
REMARK  99  GASTEIGER
REMARK  99
REMARK  99

$$$$
CHEMBL474148
  SciTegic05292516403D

 61 65  0  0  0  0            999 V2000
    8.0099    1.8302   -0.0639 C   0  0
    7.0648    2.8535   -0.0670 C   0  0
    5.7215    2.5608    0.1566 C   0  0
    5.3224    1.2424    0.3900 C   0  0
    6.2606    0.1990    0.4064 C   0  0
    7.6085    0.5129    0.1709 C   0  0
    5.8633   -1.1817    0.6749 C   0  0
    4.5487   -1.3855    1.0188 O   0  0
    4.4630   -2.7281    1.2575 C   0  0
    5.7095   -3.2788    1.0456 C   0  0
    6.5886   -2.2856    0.6678 N   0  0
    3.1500   -3.2493    1.6724 C   0  0
    6.1679   -4.6806    1.2214 C   0  0
    5.6096   -5.6512    0.1822 C   0  0
    6.1256   -6.9491    0.5020 O   0  0
    5.8895   -7.9632   -0.3842 C   0  0
    4.9379   -7.9576   -1.4000 C   0  0
    4.8198   -9.0576   -2.2562 C   0  0
    5.6613  -10.1623   -2.1113 C   0  0
    6.6272  -10.1851   -1.0986 C   0  0
    6.7021   -9.0904   -0.2165 C   0  0
    7.5956  -11.3534   -0.9808 C   0  0
    9.0314  -10.9086   -0.9568 C   0  0
    9.9910  -11.3523   -0.0498 N   0  0
   10.9843  -10.4212    0.0568 N   0  0
   10.8446   -9.6586   -1.0243 C   0  0
    9.6591   -9.9295   -1.7244 C   0  0
    9.1495   -9.3044   -2.9291 C   0  0
    9.4123   -7.9798   -3.0362 O   0  0
    8.5583   -9.9220   -3.8032 O   0  0
   10.0568  -12.5471    0.7246 C   0  0
   10.9533  -12.6119    1.8055 C   0  0
   11.0695  -13.7808    2.5598 C   0  0
   10.2984  -14.8944    2.2359 C   0  0
    9.4227  -14.8487    1.1523 C   0  0
    9.3030  -13.6806    0.3933 C   0  0
    9.0574    2.0603   -0.2408 H   0  0
    7.3750    3.8797   -0.2448 H   0  0
    4.9819    3.3567    0.1509 H   0  0
    4.2687    1.0324    0.5593 H   0  0
    8.3558   -0.2807    0.1715 H   0  0
    2.5283   -3.4526    0.7953 H   0  0
    2.6255   -2.5275    2.3061 H   0  0
    3.2575   -4.1790    2.2394 H   0  0
    7.2646   -4.7171    1.1929 H   0  0
    5.8960   -5.0281    2.2265 H   0  0
    4.5146   -5.6670    0.2315 H   0  0
    5.9289   -5.3495   -0.8232 H   0  0
    4.2702   -7.1172   -1.5549 H   0  0
    4.0816   -9.0399   -3.0555 H   0  0
    5.5759  -10.9905   -2.8134 H   0  0
    7.4329   -9.0897    0.5906 H   0  0
    7.3220  -11.8807   -0.0607 H   0  0
    7.4558  -12.0487   -1.8171 H   0  0
   11.6114   -8.9261   -1.2450 H   0  0
    9.6870   -7.5717   -2.1931 H   0  0
   11.5573  -11.7459    2.0754 H   0  0
   11.7701  -13.8320    3.3916 H   0  0
   10.3980  -15.8091    2.8169 H   0  0
    8.8514  -15.7364    0.8870 H   0  0
    8.6519  -13.7037   -0.4740 H   0  0
  1  2  2  0
  1 37  1  0
  2  3  1  0
  2 38  1  0
  3  4  2  0
  3 39  1  0
  4  5  1  0
  4 40  1  0
  5  6  2  0
  5  7  1  0
  6  1  1  0
  6 41  1  0
  7  8  1  0
  8  9  1  0
  9 10  2  0
  9 12  1  0
 10 11  1  0
 10 13  1  0
 11  7  2  0
 12 42  1  0
 12 43  1  0
 12 44  1  0
 13 14  1  0
 13 45  1  0
 13 46  1  0
 14 15  1  0
 14 47  1  0
 14 48  1  0
 15 16  1  0
 16 17  2  0
 17 18  1  0
 17 49  1  0
 18 19  2  0
 18 50  1  0
 19 20  1  0
 19 51  1  0
 20 21  2  0
 20 22  1  0
 21 16  1  0
 21 52  1  0
 22 23  1  0
 22 53  1  0
 22 54  1  0
 23 24  1  0
 24 25  1  0
 24 31  1  0
 25 26  2  0
 26 27  1  0
 26 55  1  0
 27 23  2  0
 27 28  1  0
 28 29  1  0
 28 30  2  0
 29 56  1  0
 31 32  2  0
 32 33  1  0
 32 57  1  0
 33 34  2  0
 33 58  1  0
 34 35  1  0
 34 59  1  0
 35 36  2  0
 35 60  1  0
 36 31  1  0
 36 61  1  0
M  END
> <Name>
CHEMBL474148

> <Clean Energy>
72.672401

> <chembl_id>
CHEMBL474148

> <chembl_pref_name>
None

> <efficacy>
0.19

> <Forcefield>
MMFF

> <ForcefieldBase>
MMFF

> <ForcefieldFFML>
<?xml version="1.0" encoding="UTF-8"?>
<!DOCTYPE ffml SYSTEM "Ffml.dtd">
<ffml version="1.0">
<forcefield name="MMFF" derivedFrom="MMFF" base="MMFF">
<atomTypes>
<atomType
name="C100"
element="C"
mass="12.011"
annotation=""/>
<atomType
name="O101"
element="O"
mass="16"
annotation=""/>
<atomType
name="N102"
element="N"
mass="14.007"
annotation=""/>
<atomType
name="H103"
element="H"
mass="1.008"
annotation=""/>
</atomTypes>
<parameters>
</parameters>
</forcefield>
</ffml>

> <Initial Potential Energy>
200.91098

> <Initial RMS Gradient>
31.7392

> <Minimization Criteria>
CONJUG> Minimization exiting with gradient tolerance ( 0.0100000) satisfied.

> <CHARMm Energy>
80.50382

> <Potential Energy>
80.50382

> <RMS Gradient>
0.00964

> <Bond Energy>
7.26962

> <Angle Energy>
12.89902

> <STRBend>
0.32731

> <Dihedral Energy>
11.78729

> <OOPLane>
0.16392

> <Van der Waals Energy>
61.16268

> <Electrostatic Energy>
-13.10603

> <Hydrogen Bond Energy>
0

> <Solvation Free Energy>
0

> <HasGasteigerCharges>
true

> <REMARK99>
REMARK  99  MacroMolecule created from Mol2 file
REMARK  99  CHEMBL474148
REMARK  99  PROTEIN
REMARK  99  GASTEIGER
REMARK  99
REMARK  99

$$$$
CHEMBL509369
  SciTegic05292516403D

 52 55  0  0  0  0            999 V2000
    1.4233  -13.7935   -1.4536 C   0  0
    1.1820  -15.1484   -1.6254 C   0  0
    2.0072  -16.0671   -0.9833 C   0  0
    2.4190  -13.2559   -0.7136 N   0  0
    3.2154  -14.1791   -0.1253 C   0  0
    3.0624  -15.5614   -0.2038 C   0  0
    4.0790  -16.1202    0.6010 C   0  0
    4.7793  -15.1032    1.2279 C   0  0
    4.3108  -13.9125    0.6845 N   0  0
    5.8134  -15.2126    2.2957 C   0  0
    4.7123  -12.5578    1.0703 C   0  0
    5.9814  -12.0157    0.4411 C   0  0
    7.1534  -12.7604    0.2071 C   0  0
    8.3534  -12.1451   -0.2059 C   0  0
    8.3719  -10.7736   -0.4493 C   0  0
    7.2146  -10.0221   -0.2442 C   0  0
    6.0499  -10.6368    0.2095 C   0  0
    4.2636  -17.4391    0.8320 O   0  0
    5.4431  -18.0457    0.4657 C   0  0
    5.8666  -19.1186    1.2522 C   0  0
    7.0389  -19.8032    0.9254 C   0  0
    7.7732  -19.4209   -0.1963 C   0  0
    7.3487  -18.3568   -0.9912 C   0  0
    6.1785  -17.6689   -0.6626 C   0  0
    9.4281  -12.9872   -0.3379 O   0  0
   10.7626  -12.4345   -0.2595 C   0  0  2  0  0  0
   11.7438  -13.5017   -0.7770 C   0  0
   11.1155  -12.0982    1.1837 C   0  0
   11.0990  -14.5722   -1.3159 O   0  0
   12.9641  -13.4151   -0.7373 O   0  0
    9.2073  -20.2740   -0.6103 Cl  0  0
    4.9826   -9.8630    0.4557 F   0  0
    0.7734  -13.0650   -1.9355 H   0  0
    0.3512  -15.4876   -2.2362 H   0  0
    1.8314  -17.1349   -1.0721 H   0  0
    6.0271  -14.2611    2.7873 H   0  0
    6.7505  -15.5989    1.8831 H   0  0
    5.4774  -15.9083    3.0723 H   0  0
    3.8666  -11.9003    0.8383 H   0  0
    4.8151  -12.5454    2.1612 H   0  0
    7.1652  -13.8330    0.3740 H   0  0
    9.2576  -10.2500   -0.7950 H   0  0
    7.2158   -8.9498   -0.4171 H   0  0
    5.2861  -19.4224    2.1195 H   0  0
    7.3684  -20.6344    1.5430 H   0  0
    7.9169  -18.0660   -1.8708 H   0  0
    5.8438  -16.8547   -1.2997 H   0  0
   10.8750  -11.5806   -0.9349 H   0  0
   12.1472  -11.7428    1.2699 H   0  0
   11.0039  -12.9793    1.8259 H   0  0
   10.4538  -11.3255    1.5866 H   0  0
   10.1276  -14.4534   -1.2247 H   0  0
  1  2  2  0
  1 33  1  0
  2  3  1  0
  2 34  1  0
  3  6  2  0
  3 35  1  0
  4  1  1  0
  5  4  2  0
  5  6  1  0
  6  7  1  0
  7  8  2  0
  7 18  1  0
  8  9  1  0
  8 10  1  0
  9  5  1  0
  9 11  1  0
 10 36  1  0
 10 37  1  0
 10 38  1  0
 11 12  1  0
 11 39  1  0
 11 40  1  0
 12 13  2  0
 13 14  1  0
 13 41  1  0
 14 15  2  0
 14 25  1  0
 15 16  1  0
 15 42  1  0
 16 17  2  0
 16 43  1  0
 17 12  1  0
 17 32  1  0
 18 19  1  0
 19 20  2  0
 20 21  1  0
 20 44  1  0
 21 22  2  0
 21 45  1  0
 22 23  1  0
 22 31  1  0
 23 24  2  0
 23 46  1  0
 24 19  1  0
 24 47  1  0
 25 26  1  0
 26 27  1  0
 26 28  1  0
 26 48  1  0
 27 29  1  0
 27 30  2  0
 28 49  1  0
 28 50  1  0
 28 51  1  0
 29 52  1  0
M  END
> <Name>
CHEMBL509369

> <Clean Energy>
91.212402

> <chembl_id>
CHEMBL509369

> <chembl_pref_name>
None

> <efficacy>
0.19

> <Forcefield>
MMFF

> <ForcefieldBase>
MMFF

> <ForcefieldFFML>
<?xml version="1.0" encoding="UTF-8"?>
<!DOCTYPE ffml SYSTEM "Ffml.dtd">
<ffml version="1.0">
<forcefield name="MMFF" derivedFrom="MMFF" base="MMFF">
<atomTypes>
<atomType
name="C100"
element="C"
mass="12.011"
annotation=""/>
<atomType
name="N101"
element="N"
mass="14.007"
annotation=""/>
<atomType
name="O102"
element="O"
mass="16"
annotation=""/>
<atomType
name="Cl103"
element="Cl"
mass="35.453"
annotation=""/>
<atomType
name="F104"
element="F"
mass="18.998"
annotation=""/>
<atomType
name="H105"
element="H"
mass="1.008"
annotation=""/>
</atomTypes>
<parameters>
</parameters>
</forcefield>
</ffml>

> <Initial Potential Energy>
210.86039

> <Initial RMS Gradient>
34.7082

> <Minimization Criteria>
STEEPD> Minimization exiting with gradient tolerance ( 3.0000000) satisfied.

> <CHARMm Energy>
80.82417

> <Potential Energy>
80.82417

> <RMS Gradient>
0.03527

> <Bond Energy>
6.04534

> <Angle Energy>
15.2011

> <STRBend>
1.40952

> <Dihedral Energy>
7.35227

> <OOPLane>
0.29058

> <Van der Waals Energy>
59.17279

> <Electrostatic Energy>
-8.64744

> <Hydrogen Bond Energy>
0

> <Solvation Free Energy>
0

> <HasGasteigerCharges>
true

> <REMARK99>
REMARK  99  MacroMolecule created from Mol2 file
REMARK  99  CHEMBL509369
REMARK  99  PROTEIN
REMARK  99  GASTEIGER
REMARK  99
REMARK  99

$$$$
CHEMBL1946571
  SciTegic05292516403D

 57 61  0  0  0  0            999 V2000
   -5.8157   -7.7049   -0.6339 C   0  0
   -5.8589   -9.0584   -0.2292 C   0  0
   -4.6838   -9.6500    0.2820 C   0  0
   -4.6465   -6.9317   -0.5248 C   0  0
   -3.5108   -7.5179    0.0073 C   0  0
   -3.5353   -8.8688    0.3863 C   0  0
   -2.2633   -9.1958    0.8831 N   0  0
   -1.4519   -8.0316    0.8847 C   0  0
   -2.2153   -7.0071    0.2807 N   0  0
   -0.3391   -7.9710    1.3838 O   0  0
   -1.8069   -5.6854    0.0738 C   0  0
   -1.8268  -10.4612    1.4221 C   0  0
   -0.7505  -11.1123    0.5745 C   0  0
   -1.0806  -11.8555   -0.5608 C   0  0
   -0.0700  -12.3770   -1.3749 C   0  0
    1.2844  -12.1715   -1.0698 C   0  0
    1.6371  -11.4664    0.0858 C   0  0
    0.6116  -10.9295    0.8827 C   0  0
    2.8924  -11.1204    0.5101 O   0  0
    3.9308  -12.1031    0.4813 C   0  0  1  0  0  0
    5.0343  -11.6578   -0.4783 C   0  0
    5.8982  -12.6547   -0.8047 O   0  0
    5.1952  -10.5252   -0.9110 O   0  0
    4.5107  -12.1808    1.8898 C   0  0
   -7.1688   -9.8335   -0.3137 C   0  0
   -7.9388   -9.5031   -1.3932 F   0  0
   -6.9689  -11.1816   -0.3985 F   0  0
   -7.9761   -9.6447    0.7719 F   0  0
    2.4267  -12.7494   -2.2298 Cl  0  0
   -1.9854   -3.5265   -0.2563 O   0  0
   -2.6895   -4.6987   -0.1638 N   0  0
   -0.6588   -3.7687   -0.1244 C   0  0
   -0.4693   -5.1318    0.0669 C   0  0
    0.8673   -5.5796    0.1628 C   0  0
    1.9187   -4.6504    0.1043 C   0  0
    1.6602   -3.2902   -0.0604 C   0  0
    0.3516   -2.7944   -0.1840 C   0  0
    0.1121   -1.3263   -0.3784 C   0  0
   -6.7134   -7.2360   -1.0377 H   0  0
   -4.6910  -10.6895    0.5970 H   0  0
   -4.6759   -5.8950   -0.8457 H   0  0
   -1.4311  -10.2791    2.4291 H   0  0
   -2.6713  -11.1481    1.5393 H   0  0
   -2.1209  -12.0144   -0.8381 H   0  0
   -0.3487  -12.9241   -2.2738 H   0  0
    0.8889  -10.3238    1.7464 H   0  0
    3.5581  -13.0938    0.2023 H   0  0
    5.7317  -13.5376   -0.4210 H   0  0
    5.3208  -12.9143    1.9513 H   0  0
    3.7328  -12.4568    2.6098 H   0  0
    4.9066  -11.2087    2.2059 H   0  0
    1.1129   -6.6319    0.2666 H   0  0
    2.9522   -4.9913    0.1836 H   0  0
    2.5037   -2.6009   -0.1025 H   0  0
   -0.9574   -1.0998   -0.4256 H   0  0
    0.5726   -0.9910   -1.3130 H   0  0
    0.5411   -0.7609    0.4550 H   0  0
  1  2  2  0
  1 39  1  0
  2  3  1  0
  2 25  1  0
  3  6  2  0
  3 40  1  0
  4  1  1  0
  4 41  1  0
  5  4  2  0
  5  6  1  0
  6  7  1  0
  7  8  1  0
  7 12  1  0
  8  9  1  0
  8 10  2  0
  9  5  1  0
  9 11  1  0
 11 33  1  0
 12 13  1  0
 12 42  1  0
 12 43  1  0
 13 14  2  0
 14 15  1  0
 14 44  1  0
 15 16  2  0
 15 45  1  0
 16 17  1  0
 16 29  1  0
 17 18  2  0
 17 19  1  0
 18 13  1  0
 18 46  1  0
 19 20  1  0
 20 21  1  0
 20 24  1  0
 20 47  1  0
 21 22  1  0
 21 23  2  0
 22 48  1  0
 24 49  1  0
 24 50  1  0
 24 51  1  0
 25 26  1  0
 25 27  1  0
 25 28  1  0
 30 31  1  0
 31 11  2  0
 32 30  1  0
 32 33  2  0
 33 34  1  0
 34 35  2  0
 34 52  1  0
 35 36  1  0
 35 53  1  0
 36 37  2  0
 36 54  1  0
 37 32  1  0
 37 38  1  0
 38 55  1  0
 38 56  1  0
 38 57  1  0
M  END
> <Name>
CHEMBL1946571

> <Clean Energy>
88.661903

> <chembl_id>
CHEMBL1946571

> <chembl_pref_name>
None

> <efficacy>
0.25

> <Forcefield>
MMFF

> <ForcefieldBase>
MMFF

> <ForcefieldFFML>
<?xml version="1.0" encoding="UTF-8"?>
<!DOCTYPE ffml SYSTEM "Ffml.dtd">
<ffml version="1.0">
<forcefield name="MMFF" derivedFrom="MMFF" base="MMFF">
<atomTypes>
<atomType
name="C100"
element="C"
mass="12.011"
annotation=""/>
<atomType
name="N101"
element="N"
mass="14.007"
annotation=""/>
<atomType
name="O102"
element="O"
mass="16"
annotation=""/>
<atomType
name="F103"
element="F"
mass="18.998"
annotation=""/>
<atomType
name="Cl104"
element="Cl"
mass="35.453"
annotation=""/>
<atomType
name="H105"
element="H"
mass="1.008"
annotation=""/>
</atomTypes>
<parameters>
</parameters>
</forcefield>
</ffml>

> <Initial Potential Energy>
210.60082

> <Initial RMS Gradient>
33.74991

> <Minimization Criteria>
CONJUG> Minimization exiting with gradient tolerance ( 0.0100000) satisfied.

> <CHARMm Energy>
96.04738

> <Potential Energy>
96.04738

> <RMS Gradient>
0.00925

> <Bond Energy>
9.86324

> <Angle Energy>
42.74132

> <STRBend>
-2.39503

> <Dihedral Energy>
4.55318

> <OOPLane>
0.25411

> <Van der Waals Energy>
59.73843

> <Electrostatic Energy>
-18.70786

> <Hydrogen Bond Energy>
0

> <Solvation Free Energy>
0

> <HasGasteigerCharges>
true

> <REMARK99>
REMARK  99  MacroMolecule created from Mol2 file
REMARK  99  CHEMBL1946571
REMARK  99  PROTEIN
REMARK  99  GASTEIGER
REMARK  99
REMARK  99

$$$$
CHEMBL1080140
  SciTegic05292516403D

 61 64  0  0  0  0            999 V2000
    0.0313   -4.9750   -0.2043 C   0  0
    0.8499   -5.2398   -1.8098 S   0  0
    2.3539   -5.9431   -1.2601 C   0  0
    2.5666   -7.6260   -1.0747 S   0  0
    4.1912   -7.3600   -0.5629 C   0  0
    4.4472   -5.9934   -0.5635 C   0  0
    3.3941   -5.1939   -0.9883 N   0  0
    5.7114   -5.3765   -0.1844 C   0  0
    6.3824   -5.7401    0.9866 C   0  0
    7.6058   -5.1458    1.3092 C   0  0
    8.1774   -4.1826    0.4742 C   0  0
    7.4904   -3.7863   -0.6729 C   0  0
    6.2624   -4.3779   -0.9970 C   0  0
    5.0391   -8.5162   -0.2661 C   0  0
    4.6698   -9.4466    0.7131 C   0  0
    5.4828  -10.5499    0.9805 C   0  0
    6.6741  -10.7426    0.2791 C   0  0
    7.0561   -9.8161   -0.6897 C   0  0
    6.2415   -8.7097   -0.9601 C   0  0
    9.3914   -3.7101    0.8923 O   0  0
   10.0901   -2.8443    0.0050 C   0  0
    7.3655  -11.8657    0.6347 O   0  0
    8.5683  -12.1330   -0.0762 C   0  0
   -5.7684   -2.6385    0.8739 C   0  0
   -5.5869   -3.8871    0.2740 C   0  0
   -4.3243   -4.4835    0.2735 C   0  0
   -3.2427   -3.8297    0.8687 C   0  0
   -3.4353   -2.6013    1.5094 C   0  0
   -4.7004   -2.0090    1.5148 C   0  0
   -6.9763   -1.9919    0.9173 O   0  0
   -7.6378   -1.9656   -0.3422 C   0  0
   -8.7286   -0.9037   -0.3826 C   0  0
   -9.2761   -0.7684   -1.6204 O   0  0
   -9.1184   -0.2366    0.5636 O   0  0
   -2.0175   -4.4422    0.9088 O   0  0
   -1.3970   -4.4780   -0.3877 C   0  0
   -2.1324   -1.7783    2.2850 Cl  0  0
    0.0219   -5.9142    0.3606 H   0  0
    0.6056   -4.2546    0.3895 H   0  0
    5.9640   -6.4807    1.6639 H   0  0
    8.1178   -5.4413    2.2214 H   0  0
    7.8754   -3.0182   -1.3345 H   0  0
    5.7322   -4.0548   -1.8916 H   0  0
    3.7492   -9.3209    1.2791 H   0  0
    5.1873  -11.2686    1.7414 H   0  0
    7.9771   -9.9216   -1.2532 H   0  0
    6.5567   -8.0006   -1.7234 H   0  0
   11.0652   -2.6248    0.4506 H   0  0
    9.5566   -1.8961   -0.1165 H   0  0
   10.2651   -3.3261   -0.9627 H   0  0
    8.9857  -13.0665    0.3132 H   0  0
    9.3080  -11.3427    0.0895 H   0  0
    8.3732  -12.2754   -1.1443 H   0  0
   -6.4232   -4.4235   -0.1656 H   0  0
   -4.1901   -5.4674   -0.1678 H   0  0
   -4.8624   -1.0541    2.0099 H   0  0
   -6.9255   -1.7313   -1.1435 H   0  0
   -8.1252   -2.9301   -0.5231 H   0  0
   -8.8633   -1.3339   -2.3012 H   0  0
   -1.9538   -5.1646   -1.0368 H   0  0
   -1.3957   -3.4747   -0.8334 H   0  0
  1  2  1  0
  1 38  1  0
  1 39  1  0
  2  3  1  0
  3  4  1  0
  4  5  1  0
  5  6  2  0
  5 14  1  0
  6  7  1  0
  6  8  1  0
  7  3  2  0
  8  9  2  0
  9 10  1  0
  9 40  1  0
 10 11  2  0
 10 41  1  0
 11 12  1  0
 11 20  1  0
 12 13  2  0
 12 42  1  0
 13  8  1  0
 13 43  1  0
 14 15  2  0
 15 16  1  0
 15 44  1  0
 16 17  2  0
 16 45  1  0
 17 18  1  0
 17 22  1  0
 18 19  2  0
 18 46  1  0
 19 14  1  0
 19 47  1  0
 20 21  1  0
 21 48  1  0
 21 49  1  0
 21 50  1  0
 22 23  1  0
 23 51  1  0
 23 52  1  0
 23 53  1  0
 24 25  2  0
 24 30  1  0
 25 26  1  0
 25 54  1  0
 26 27  2  0
 26 55  1  0
 27 28  1  0
 27 35  1  0
 28 29  2  0
 28 37  1  0
 29 24  1  0
 29 56  1  0
 30 31  1  0
 31 32  1  0
 31 57  1  0
 31 58  1  0
 32 33  1  0
 32 34  2  0
 33 59  1  0
 35 36  1  0
 36  1  1  0
 36 60  1  0
 36 61  1  0
M  END
> <Name>
CHEMBL1080140

> <Clean Energy>
47.952301

> <chembl_id>
CHEMBL1080140

> <chembl_pref_name>
None

> <efficacy>
0.41

> <Forcefield>
MMFF

> <ForcefieldBase>
MMFF

> <ForcefieldFFML>
<?xml version="1.0" encoding="UTF-8"?>
<!DOCTYPE ffml SYSTEM "Ffml.dtd">
<ffml version="1.0">
<forcefield name="MMFF" derivedFrom="MMFF" base="MMFF">
<atomTypes>
<atomType
name="C100"
element="C"
mass="12.011"
annotation=""/>
<atomType
name="S101"
element="S"
mass="32.066"
annotation=""/>
<atomType
name="N102"
element="N"
mass="14.007"
annotation=""/>
<atomType
name="O103"
element="O"
mass="16"
annotation=""/>
<atomType
name="Cl104"
element="Cl"
mass="35.453"
annotation=""/>
<atomType
name="H105"
element="H"
mass="1.008"
annotation=""/>
</atomTypes>
<parameters>
</parameters>
</forcefield>
</ffml>

> <Initial Potential Energy>
1193.77553

> <Initial RMS Gradient>
752.03688

> <Minimization Criteria>
STEEPD> Minimization exiting with gradient tolerance ( 3.0000000) satisfied.

> <CHARMm Energy>
98.0887

> <Potential Energy>
98.0887

> <RMS Gradient>
0.0651

> <Bond Energy>
5.48142

> <Angle Energy>
23.18459

> <STRBend>
-0.09608

> <Dihedral Energy>
20.16684

> <OOPLane>
0.10651

> <Van der Waals Energy>
66.36139

> <Electrostatic Energy>
-17.11596

> <Hydrogen Bond Energy>
0

> <Solvation Free Energy>
0

> <HasGasteigerCharges>
true

> <REMARK99>
REMARK  99  MacroMolecule created from Mol2 file
REMARK  99  CHEMBL1080140
REMARK  99  PROTEIN
REMARK  99  GASTEIGER
REMARK  99
REMARK  99

$$$$
CHEMBL234907
  SciTegic05292516403D

 61 64  0  0  0  0            999 V2000
   -3.7433  -25.3903    0.3970 C   0  0  2  0  0  0
   -3.0175  -25.1105    1.6963 C   0  0
   -5.1622  -24.8259    0.4039 C   0  0
   -3.7003  -26.8389    0.1224 C   0  0
   -3.6639  -28.0164   -0.1146 C   0  0
   -1.7110  -24.8496    1.8764 C   0  0
   -0.6062  -24.8286    0.8580 C   0  0
    0.3721  -25.7591    1.3189 O   0  0
    1.6396  -25.6660    0.8215 C   0  0
    2.5855  -26.4224    1.5120 C   0  0
    3.9319  -26.4134    1.1332 C   0  0
    4.3556  -25.6495    0.0429 C   0  0
    3.4053  -24.8950   -0.6707 C   0  0
    2.0497  -24.9137   -0.2771 C   0  0
    5.6568  -25.5621   -0.3943 O   0  0
    6.5881  -26.4552    0.1947 C   0  0
    7.9818  -26.3744   -0.4160 C   0  0
    8.8120  -27.3293    0.0911 O   0  0
    8.3729  -25.5679   -1.2453 O   0  0
    3.8252  -24.0652   -1.8542 C   0  0
   -3.6361  -29.4123   -0.4025 C   0  0
   -5.4364  -23.6476   -0.3261 C   0  0
   -7.4903  -24.8995    1.1871 C   0  0
   -6.1935  -25.4299    1.1509 C   0  0
   -7.7095  -23.7426    0.4469 C   0  0
   -6.7335  -23.1045   -0.3057 C   0  0
   -7.3717  -21.9827   -0.8956 C   0  0
   -8.6825  -22.0075   -0.4690 C   0  0
   -8.8925  -23.0752    0.3514 O   0  0
   -9.8490  -21.1418   -0.7189 C   0  0
   -4.7423  -30.1707   -0.7174 C   0  0
   -4.4038  -31.5346   -0.9608 C   0  0
   -3.0518  -31.7744   -0.8205 C   0  0
   -2.2048  -30.3456   -0.3991 S   0  0
   -2.3139  -33.0592   -0.9878 C   0  0
   -3.2002  -24.8965   -0.4198 H   0  0
   -3.6458  -25.1067    2.5883 H   0  0
   -1.3615  -24.6614    2.8912 H   0  0
   -0.9487  -25.1255   -0.1375 H   0  0
   -0.1999  -23.8108    0.8248 H   0  0
    2.2764  -27.0195    2.3672 H   0  0
    4.6167  -27.0071    1.7275 H   0  0
    1.3331  -24.3325   -0.8494 H   0  0
    6.7027  -26.2181    1.2591 H   0  0
    6.2422  -27.4868    0.0547 H   0  0
    8.3694  -27.9210    0.7300 H   0  0
    2.9723  -23.5476   -2.3058 H   0  0
    4.2718  -24.7023   -2.6244 H   0  0
    4.5494  -23.3045   -1.5453 H   0  0
   -4.6571  -23.1546   -0.9013 H   0  0
   -8.2837  -25.3603    1.7615 H   0  0
   -5.9952  -26.3342    1.7257 H   0  0
   -6.9269  -21.2503   -1.5532 H   0  0
  -10.6649  -21.7171   -1.1669 H   0  0
   -9.5935  -20.3256   -1.4018 H   0  0
  -10.2081  -20.7029    0.2169 H   0  0
   -5.7488  -29.7726   -0.7739 H   0  0
   -5.1225  -32.3001   -1.2251 H   0  0
   -1.8010  -33.3358   -0.0608 H   0  0
   -1.5716  -32.9784   -1.7886 H   0  0
   -2.9997  -33.8725   -1.2470 H   0  0
  1  2  1  0
  1  3  1  0
  1  4  1  0
  1 36  1  0
  2  6  2  0
  2 37  1  0
  3 22  2  0
  4  5  3  0
  5 21  1  0
  6  7  1  0
  6 38  1  0
  7  8  1  0
  7 39  1  0
  7 40  1  0
  8  9  1  0
  9 10  2  0
 10 11  1  0
 10 41  1  0
 11 12  2  0
 11 42  1  0
 12 13  1  0
 12 15  1  0
 13 14  2  0
 13 20  1  0
 14  9  1  0
 14 43  1  0
 15 16  1  0
 16 17  1  0
 16 44  1  0
 16 45  1  0
 17 18  1  0
 17 19  2  0
 18 46  1  0
 20 47  1  0
 20 48  1  0
 20 49  1  0
 21 31  2  0
 22 26  1  0
 22 50  1  0
 23 24  2  0
 23 51  1  0
 24  3  1  0
 24 52  1  0
 25 23  1  0
 25 26  2  0
 26 27  1  0
 27 28  2  0
 27 53  1  0
 28 29  1  0
 28 30  1  0
 29 25  1  0
 30 54  1  0
 30 55  1  0
 30 56  1  0
 31 32  1  0
 31 57  1  0
 32 33  2  0
 32 58  1  0
 33 34  1  0
 33 35  1  0
 34 21  1  0
 35 59  1  0
 35 60  1  0
 35 61  1  0
M  END
> <Name>
CHEMBL234907

> <Clean Energy>
105.444

> <chembl_id>
CHEMBL234907

> <chembl_pref_name>
None

> <efficacy>
0.23

> <Forcefield>
MMFF

> <ForcefieldBase>
MMFF

> <ForcefieldFFML>
<?xml version="1.0" encoding="UTF-8"?>
<!DOCTYPE ffml SYSTEM "Ffml.dtd">
<ffml version="1.0">
<forcefield name="MMFF" derivedFrom="MMFF" base="MMFF">
<atomTypes>
<atomType
name="C100"
element="C"
mass="12.011"
annotation=""/>
<atomType
name="O101"
element="O"
mass="16"
annotation=""/>
<atomType
name="S102"
element="S"
mass="32.066"
annotation=""/>
<atomType
name="H103"
element="H"
mass="1.008"
annotation=""/>
</atomTypes>
<parameters>
</parameters>
</forcefield>
</ffml>

> <Initial Potential Energy>
311.68921

> <Initial RMS Gradient>
32.94759

> <Minimization Criteria>
STEEPD> Minimization exiting with gradient tolerance ( 3.0000000) satisfied.

> <CHARMm Energy>
82.50289

> <Potential Energy>
82.50289

> <RMS Gradient>
0.01131

> <Bond Energy>
5.5715

> <Angle Energy>
21.75632

> <STRBend>
-1.0085

> <Dihedral Energy>
-5.69648

> <OOPLane>
0.02016

> <Van der Waals Energy>
47.82394

> <Electrostatic Energy>
14.03596

> <Hydrogen Bond Energy>
0

> <Solvation Free Energy>
0

> <HasGasteigerCharges>
true

> <REMARK99>
REMARK  99  MacroMolecule created from Mol2 file
REMARK  99  CHEMBL234907
REMARK  99  PROTEIN
REMARK  99  GASTEIGER
REMARK  99
REMARK  99

$$$$
CHEMBL1801712
  SciTegic05292516403D

 58 63  0  0  0  0            999 V2000
   -8.3064   -3.1093   -0.5012 C   0  0
   -7.7438   -1.8320   -0.2619 C   0  0
   -7.5531   -4.3386   -0.7989 C   0  0
   -6.3078   -1.5058   -0.2646 C   0  0
   -5.7098   -0.9467   -1.4176 C   0  0
   -5.5500   -1.6089    0.9149 C   0  0
   -4.4028   -0.4458   -1.3925 C   0  0
   -9.7149   -3.2338   -0.4553 C   0  0
   -8.6129   -0.7486    0.0114 C   0  0
  -10.5501   -2.1480   -0.1851 C   0  0
   -9.9961   -0.9016    0.0490 C   0  0
   -3.6989   -0.4956   -0.1990 C   0  0
   -4.2532   -1.1108    0.9303 C   0  0
   -3.3284   -1.0164    2.1054 C   0  0
   -2.0016   -0.6170    1.4416 C   0  0
   -2.3416    0.0837    0.1081 C   0  0  2  0  0  0
   -2.2554    1.5417    0.1794 N   0  0
   -2.6785    3.7260    0.3680 N   0  0
   -1.0574    2.2003   -0.0396 C   0  0
   -3.2032    2.5149    0.4692 C   0  0
   -1.3593    3.5475    0.0628 C   0  0
    1.1298    2.5668   -0.4788 C   0  0
    0.1499    1.6513   -0.2961 N   0  0
   -0.3301    4.4831   -0.1325 C   0  0
    0.9413    3.9511   -0.4104 C   0  0
   -4.6308    2.2715    0.8506 C   0  0
   -0.5256    5.9660   -0.0429 C   0  0
   -5.3378    3.5362    1.3246 C   0  0
   -6.1999   -4.4503   -0.9756 N   0  0
   -5.8554   -5.7172   -1.2346 N   0  0
   -6.9952   -6.3902   -1.2242 N   0  0
   -8.0548   -5.5580   -0.9596 N   0  0
    2.5041    2.0302   -0.7662 C   0  0
   -6.2926   -0.8446   -2.3334 H   0  0
   -5.9929   -2.0129    1.8235 H   0  0
   -3.9776    0.0242   -2.2756 H   0  0
  -10.1765   -4.2031   -0.6371 H   0  0
   -8.2031    0.2428    0.2026 H   0  0
  -11.6276   -2.2806   -0.1589 H   0  0
  -10.6245   -0.0419    0.2610 H   0  0
   -3.6690   -0.2410    2.7982 H   0  0
   -3.2369   -1.9690    2.6348 H   0  0
   -1.3753   -0.0172    2.1108 H   0  0
   -1.4386   -1.5346    1.2193 H   0  0
   -1.6388   -0.2420   -0.6693 H   0  0
    1.7848    4.6221   -0.5667 H   0  0
   -5.1825    1.8840   -0.0101 H   0  0
   -4.6818    1.5440    1.6630 H   0  0
    0.0780    6.3764    0.7728 H   0  0
   -1.5729    6.2190    0.1491 H   0  0
   -0.2290    6.4435   -0.9822 H   0  0
   -6.3708    3.3081    1.6068 H   0  0
   -5.3639    4.2965    0.5365 H   0  0
   -4.8353    3.9685    2.1967 H   0  0
   -5.4761   -3.7479   -0.9400 H   0  0
    2.8633    2.4053   -1.7296 H   0  0
    2.4943    0.9363   -0.8091 H   0  0
    3.1995    2.3343    0.0221 H   0  0
  1  2  1  0
  2  4  1  0
  3  1  1  0
  3 29  1  0
  4  5  2  0
  5  7  1  0
  5 34  1  0
  6  4  1  0
  6 13  2  0
  6 35  1  0
  7 12  2  0
  7 36  1  0
  8  1  2  0
  8 10  1  0
  8 37  1  0
  9  2  2  0
  9 38  1  0
 10 11  2  0
 10 39  1  0
 11  9  1  0
 11 40  1  0
 12 13  1  0
 13 14  1  0
 14 15  1  0
 14 41  1  0
 14 42  1  0
 15 16  1  0
 15 43  1  0
 15 44  1  0
 16 12  1  0
 16 17  1  0
 16 45  1  0
 17 19  1  0
 18 20  2  0
 18 21  1  0
 19 21  2  0
 19 23  1  0
 20 17  1  0
 21 24  1  0
 22 33  1  0
 23 22  2  0
 24 25  2  0
 25 22  1  0
 25 46  1  0
 26 20  1  0
 26 47  1  0
 26 48  1  0
 27 24  1  0
 27 49  1  0
 27 50  1  0
 27 51  1  0
 28 26  1  0
 28 52  1  0
 28 53  1  0
 28 54  1  0
 29 30  1  0
 29 55  1  0
 30 31  2  0
 31 32  1  0
 32  3  2  0
 33 56  1  0
 33 57  1  0
 33 58  1  0
M  END
> <Name>
CHEMBL1801712

> <Clean Energy>
93.120102

> <chembl_id>
CHEMBL1801712

> <chembl_pref_name>
None

> <efficacy>
0.260869565

> <Forcefield>
MMFF

> <ForcefieldBase>
MMFF

> <ForcefieldFFML>
<?xml version="1.0" encoding="UTF-8"?>
<!DOCTYPE ffml SYSTEM "Ffml.dtd">
<ffml version="1.0">
<forcefield name="MMFF" derivedFrom="MMFF" base="MMFF">
<atomTypes>
<atomType
name="C100"
element="C"
mass="12.011"
annotation=""/>
<atomType
name="N101"
element="N"
mass="14.007"
annotation=""/>
<atomType
name="H102"
element="H"
mass="1.008"
annotation=""/>
</atomTypes>
<parameters>
</parameters>
</forcefield>
</ffml>

> <Initial Potential Energy>
237.32338

> <Initial RMS Gradient>
38.21724

> <Minimization Criteria>
STEEPD> Minimization exiting with gradient tolerance ( 3.0000000) satisfied.

> <CHARMm Energy>
87.43244

> <Potential Energy>
87.43244

> <RMS Gradient>
0.0617

> <Bond Energy>
8.30442

> <Angle Energy>
16.99619

> <STRBend>
-0.53238

> <Dihedral Energy>
6.43048

> <OOPLane>
0.19257

> <Van der Waals Energy>
55.83206

> <Electrostatic Energy>
0.20909

> <Hydrogen Bond Energy>
0

> <Solvation Free Energy>
0

> <HasGasteigerCharges>
true

> <REMARK99>
REMARK  99  MacroMolecule created from Mol2 file
REMARK  99  CHEMBL1801712
REMARK  99  PROTEIN
REMARK  99  GASTEIGER
REMARK  99
REMARK  99

$$$$
CHEMBL4863378
  SciTegic05292516403D

 53 56  0  0  0  0            999 V2000
   11.7744  -25.0650    1.0051 C   0  0
   12.2291  -25.6769   -0.1624 C   0  0
   13.4634  -25.3296   -0.7303 C   0  0
   12.5495  -24.0885    1.6348 C   0  0
   13.7873  -23.7139    1.0834 C   0  0
   14.2206  -24.3382   -0.0859 C   0  0
   15.4437  -23.7545   -0.3507 N   0  0
   15.6797  -22.7959    0.6152 C   0  0
   14.7092  -22.7861    1.5055 N   0  0
   16.8676  -21.8884    0.6551 C   0  0
   16.5998  -20.5914   -0.1084 C   0  0
   17.8013  -19.6608   -0.0619 C   0  0
   16.3167  -24.0857   -1.4708 C   0  0
   17.5740  -24.8120   -1.0502 C   0  0
   17.5723  -25.7729   -0.0303 C   0  0
   18.7548  -26.4138    0.3453 C   0  0
   19.9661  -26.1375   -0.3059 C   0  0
   19.9600  -25.2010   -1.3478 C   0  0
   18.7789  -24.5503   -1.7195 C   0  0
   21.2075  -26.8058    0.1105 C   0  0
   21.3924  -28.1973    0.0129 C   0  0
   22.5594  -28.8106    0.4891 C   0  0
   23.5685  -28.0381    1.0592 C   0  0
   23.4177  -26.6569    1.1474 C   0  0
   22.2487  -26.0481    0.6802 C   0  0
   12.0866  -23.5144    2.7555 F   0  0
   20.3810  -29.0552   -0.6317 C   0  0
   20.1023  -29.0273   -1.8172 O   0  0
   19.8410  -29.8540    0.3222 O   0  0
   18.7999  -30.6999   -0.1654 C   0  0
   10.8162  -25.3401    1.4367 H   0  0
   11.6176  -26.4395   -0.6409 H   0  0
   13.8020  -25.8155   -1.6398 H   0  0
   17.0889  -21.6539    1.7040 H   0  0
   17.7596  -22.3827    0.2602 H   0  0
   16.3557  -20.8092   -1.1549 H   0  0
   15.7296  -20.0774    0.3181 H   0  0
   17.5879  -18.7388   -0.6116 H   0  0
   18.6792  -20.1314   -0.5158 H   0  0
   18.0494  -19.3917    0.9697 H   0  0
   15.7632  -24.7018   -2.1859 H   0  0
   16.5549  -23.1383   -1.9677 H   0  0
   16.6574  -26.0253    0.5030 H   0  0
   18.7227  -27.1320    1.1632 H   0  0
   20.8804  -24.9778   -1.8852 H   0  0
   18.8141  -23.8313   -2.5358 H   0  0
   22.6784  -29.8875    0.4106 H   0  0
   24.4710  -28.5106    1.4343 H   0  0
   24.2064  -26.0521    1.5900 H   0  0
   22.1438  -24.9688    0.7831 H   0  0
   17.9830  -30.1029   -0.5832 H   0  0
   18.4099  -31.2776    0.6771 H   0  0
   19.1922  -31.3973   -0.9121 H   0  0
  1  2  2  0
  1 31  1  0
  2  3  1  0
  2 32  1  0
  3  6  2  0
  3 33  1  0
  4  1  1  0
  4 26  1  0
  5  4  2  0
  5  6  1  0
  6  7  1  0
  7  8  1  0
  7 13  1  0
  8  9  2  0
  8 10  1  0
  9  5  1  0
 10 11  1  0
 10 34  1  0
 10 35  1  0
 11 12  1  0
 11 36  1  0
 11 37  1  0
 12 38  1  0
 12 39  1  0
 12 40  1  0
 13 14  1  0
 13 41  1  0
 13 42  1  0
 14 15  2  0
 15 16  1  0
 15 43  1  0
 16 17  2  0
 16 44  1  0
 17 18  1  0
 17 20  1  0
 18 19  2  0
 18 45  1  0
 19 14  1  0
 19 46  1  0
 20 21  2  0
 21 22  1  0
 21 27  1  0
 22 23  2  0
 22 47  1  0
 23 24  1  0
 23 48  1  0
 24 25  2  0
 24 49  1  0
 25 20  1  0
 25 50  1  0
 27 28  2  0
 27 29  1  0
 29 30  1  0
 30 51  1  0
 30 52  1  0
 30 53  1  0
M  END
> <Name>
CHEMBL4863378

> <Clean Energy>
62.828499

> <chembl_id>
CHEMBL4863378

> <chembl_pref_name>
None

> <efficacy>
0.13960114

> <Forcefield>
MMFF

> <ForcefieldBase>
MMFF

> <ForcefieldFFML>
<?xml version="1.0" encoding="UTF-8"?>
<!DOCTYPE ffml SYSTEM "Ffml.dtd">
<ffml version="1.0">
<forcefield name="MMFF" derivedFrom="MMFF" base="MMFF">
<atomTypes>
<atomType
name="C100"
element="C"
mass="12.011"
annotation=""/>
<atomType
name="N101"
element="N"
mass="14.007"
annotation=""/>
<atomType
name="F102"
element="F"
mass="18.998"
annotation=""/>
<atomType
name="O103"
element="O"
mass="16"
annotation=""/>
<atomType
name="H104"
element="H"
mass="1.008"
annotation=""/>
</atomTypes>
<parameters>
</parameters>
</forcefield>
</ffml>

> <Initial Potential Energy>
301.299

> <Initial RMS Gradient>
37.67149

> <Minimization Criteria>
CONJUG> Minimization exiting with gradient tolerance ( 0.0100000) satisfied.

> <CHARMm Energy>
104.75898

> <Potential Energy>
104.75898

> <RMS Gradient>
0.00993

> <Bond Energy>
6.3486

> <Angle Energy>
7.00438

> <STRBend>
-0.2905

> <Dihedral Energy>
9.03505

> <OOPLane>
0.026

> <Van der Waals Energy>
53.72375

> <Electrostatic Energy>
28.91169

> <Hydrogen Bond Energy>
0

> <Solvation Free Energy>
0

> <HasGasteigerCharges>
true

> <REMARK99>
REMARK  99  MacroMolecule created from Mol2 file
REMARK  99  CHEMBL4863378
REMARK  99  PROTEIN
REMARK  99  GASTEIGER
REMARK  99
REMARK  99

$$$$
CHEMBL513244
  SciTegic05292516403D

 43 45  0  0  0  0            999 V2000
   -6.5369   -4.2847   -0.4334 C   0  0
   -6.1824   -4.8421   -1.6581 C   0  0
   -4.8408   -4.9968   -1.9963 C   0  0
   -3.8415   -4.6024   -1.0997 C   0  0
   -4.1860   -4.0646    0.1400 C   0  0
   -5.5369   -3.8952    0.4615 C   0  0
   -7.4028   -5.3404   -2.7606 Cl  0  0
   -3.3141   -3.6481    1.1073 O   0  0
   -1.9620   -4.1573    1.0708 C   0  0  1  0  0  0
   -1.1380   -3.2291    1.9695 C   0  0
   -1.9007   -5.5948    1.6255 C   0  0
   -1.8121   -2.1174    2.3655 O   0  0
    0.0219   -3.4404    2.2974 O   0  0
   -0.9894   -6.5188    0.8409 C   0  0
    0.4001   -6.4992    1.0401 C   0  0
    1.2380   -7.3658    0.3283 C   0  0
    0.6899   -8.2721   -0.5778 C   0  0
   -0.6854   -8.2862   -0.8051 C   0  0
   -1.5223   -7.4200   -0.0932 C   0  0
    1.4825   -9.0937   -1.3431 O   0  0
    2.2030  -10.0950   -0.7232 C   0  0
    1.9007  -10.6453    0.5234 C   0  0
    2.6767  -11.6933    1.0326 C   0  0
    3.7463  -12.2085    0.2957 C   0  0
    4.0452  -11.6707   -0.9552 C   0  0
    3.2736  -10.6173   -1.4606 C   0  0
   -7.5828   -4.1549   -0.1674 H   0  0
   -4.5604   -5.4242   -2.9563 H   0  0
   -2.8118   -4.7252   -1.4165 H   0  0
   -5.8178   -3.4695    1.4220 H   0  0
   -1.5304   -4.0432    0.0706 H   0  0
   -1.5735   -5.6019    2.6740 H   0  0
   -2.9040   -6.0396    1.6494 H   0  0
   -2.7283   -2.1458    2.0111 H   0  0
    0.8478   -5.8110    1.7559 H   0  0
    2.3130   -7.3276    0.4818 H   0  0
   -1.1063   -8.9759   -1.5317 H   0  0
   -2.5950   -7.4632   -0.2707 H   0  0
    1.0608  -10.2838    1.1092 H   0  0
    2.4360  -12.1070    2.0085 H   0  0
    4.3428  -13.0292    0.6920 H   0  0
    4.8745  -12.0732   -1.5348 H   0  0
    3.5056  -10.1988   -2.4365 H   0  0
  1  2  2  0
  1 27  1  0
  2  3  1  0
  2  7  1  0
  3  4  2  0
  3 28  1  0
  4  5  1  0
  4 29  1  0
  5  6  2  0
  5  8  1  0
  6  1  1  0
  6 30  1  0
  8  9  1  0
  9 10  1  0
  9 11  1  0
  9 31  1  0
 10 12  1  0
 10 13  2  0
 11 14  1  0
 11 32  1  0
 11 33  1  0
 12 34  1  0
 14 15  2  0
 15 16  1  0
 15 35  1  0
 16 17  2  0
 16 36  1  0
 17 18  1  0
 17 20  1  0
 18 19  2  0
 18 37  1  0
 19 14  1  0
 19 38  1  0
 20 21  1  0
 21 22  2  0
 22 23  1  0
 22 39  1  0
 23 24  2  0
 23 40  1  0
 24 25  1  0
 24 41  1  0
 25 26  2  0
 25 42  1  0
 26 21  1  0
 26 43  1  0
M  END
> <Name>
CHEMBL513244

> <Clean Energy>
30.7257

> <chembl_id>
CHEMBL513244

> <chembl_pref_name>
None

> <efficacy>
0.25

> <Forcefield>
MMFF

> <ForcefieldBase>
MMFF

> <ForcefieldFFML>
<?xml version="1.0" encoding="UTF-8"?>
<!DOCTYPE ffml SYSTEM "Ffml.dtd">
<ffml version="1.0">
<forcefield name="MMFF" derivedFrom="MMFF" base="MMFF">
<atomTypes>
<atomType
name="C100"
element="C"
mass="12.011"
annotation=""/>
<atomType
name="Cl101"
element="Cl"
mass="35.453"
annotation=""/>
<atomType
name="O102"
element="O"
mass="16"
annotation=""/>
<atomType
name="H103"
element="H"
mass="1.008"
annotation=""/>
</atomTypes>
<parameters>
</parameters>
</forcefield>
</ffml>

> <Initial Potential Energy>
188.00526

> <Initial RMS Gradient>
39.51144

> <Minimization Criteria>
CONJUG> Minimization exiting with gradient tolerance ( 0.0100000) satisfied.

> <CHARMm Energy>
72.22908

> <Potential Energy>
72.22908

> <RMS Gradient>
0.00997

> <Bond Energy>
5.38656

> <Angle Energy>
14.39848

> <STRBend>
0.63413

> <Dihedral Energy>
7.27237

> <OOPLane>
0.0969

> <Van der Waals Energy>
55.94455

> <Electrostatic Energy>
-11.50391

> <Hydrogen Bond Energy>
0

> <Solvation Free Energy>
0

> <HasGasteigerCharges>
true

> <REMARK99>
REMARK  99  MacroMolecule created from Mol2 file
REMARK  99  CHEMBL513244
REMARK  99  PROTEIN
REMARK  99  GASTEIGER
REMARK  99
REMARK  99

$$$$
CHEMBL166408
  SciTegic05292516403D

 63 66  0  0  0  0            999 V2000
   -1.2396   -4.3439    1.0122 C   0  0
   -2.1590   -3.2362    0.6780 C   0  0
   -1.6433   -5.7665    0.8421 C   0  0
    9.9086   -0.9739   -0.6058 C   0  0
    8.4445   -1.2915   -0.3241 C   0  0  1  0  0  0
    0.0405   -4.0734    1.3551 C   0  0
   -2.5448   -3.0541   -0.6605 C   0  0
   -2.2673   -6.2473   -0.3295 C   0  0
   10.4595    0.0833   -0.3386 O   0  0
    7.5704   -0.3327   -1.1423 C   0  0
   -2.0432   -4.0083   -1.7157 C   0  0
   -2.6258   -5.4159   -1.5509 C   0  0
    6.1163   -0.4521   -0.7583 C   0  0
   10.5530   -2.0115   -1.2021 O   0  0
    3.5007   -0.9292    0.1188 C   0  0
    8.2415   -2.6618   -0.7479 O   0  0
    5.6377    0.1742    0.3984 C   0  0
    5.2547   -1.2688   -1.5043 C   0  0
    4.3319   -0.0616    0.8281 C   0  0
    3.9493   -1.5036   -1.0693 C   0  0
   -2.6611   -2.3880    1.6731 C   0  0
   -1.4483   -6.6500    1.9245 C   0  0
    2.2698   -1.1426    0.6721 O   0  0
    0.6916   -2.7220    1.5176 C   0  0
   -2.6454   -7.6072   -0.3822 C   0  0
   -3.4082   -2.0011   -0.9895 C   0  0
    1.6915   -2.4249    0.4031 C   0  0
    7.5160   -3.4286    0.2211 C   0  0
   -1.8334   -7.9892    1.8501 C   0  0
   -3.5109   -1.3371    1.3341 C   0  0
    7.2296   -4.7924   -0.3738 C   0  0
   -3.8790   -1.1418    0.0043 C   0  0
   -2.4228   -8.4696    0.6903 C   0  0
    8.2957   -1.1942    0.7586 H   0  0
    0.7365   -4.8980    1.5172 H   0  0
    7.8882    0.7076   -0.9967 H   0  0
    7.6821   -0.5393   -2.2148 H   0  0
   -2.3240   -3.6311   -2.7075 H   0  0
   -0.9461   -4.0318   -1.7088 H   0  0
   -3.7219   -5.3477   -1.5866 H   0  0
   -2.3145   -5.9880   -2.4358 H   0  0
    9.8864   -2.7330   -1.3151 H   0  0
    6.2843    0.8217    0.9874 H   0  0
    5.6103   -1.7567   -2.4103 H   0  0
    3.9677    0.4065    1.7391 H   0  0
    3.3073   -2.1433   -1.6659 H   0  0
   -2.3854   -2.5423    2.7133 H   0  0
   -1.0061   -6.2903    2.8513 H   0  0
   -0.0290   -1.9013    1.5731 H   0  0
    1.2100   -2.7024    2.4851 H   0  0
   -3.1374   -8.0001   -1.2712 H   0  0
   -3.7351   -1.8495   -2.0162 H   0  0
    1.1818   -2.3926   -0.5672 H   0  0
    2.4573   -3.2117    0.3900 H   0  0
    8.1301   -3.5368    1.1217 H   0  0
    6.5780   -2.9358    0.4891 H   0  0
   -1.6810   -8.6491    2.6997 H   0  0
   -3.8965   -0.6775    2.1074 H   0  0
    6.6866   -5.4219    0.3367 H   0  0
    8.1614   -5.2956   -0.6523 H   0  0
    6.6339   -4.6958   -1.2876 H   0  0
   -4.5509   -0.3279   -0.2572 H   0  0
   -2.7285   -9.5100    0.6237 H   0  0
  2  1  1  0
  3  1  1  0
  4  5  1  0
  5 10  1  0
  5 34  1  0
  6  1  2  0
  6 35  1  0
  7  2  2  0
  8  3  2  0
  9  4  2  0
 10 13  1  0
 10 36  1  0
 10 37  1  0
 11  7  1  0
 11 12  1  0
 11 38  1  0
 11 39  1  0
 12  8  1  0
 12 40  1  0
 12 41  1  0
 13 17  2  0
 13 18  1  0
 14  4  1  0
 14 42  1  0
 15 23  1  0
 16  5  1  0
 17 19  1  0
 17 43  1  0
 18 20  2  0
 18 44  1  0
 19 15  2  0
 19 45  1  0
 20 15  1  0
 20 46  1  0
 21  2  1  0
 21 47  1  0
 22  3  1  0
 22 48  1  0
 23 27  1  0
 24  6  1  0
 24 49  1  0
 24 50  1  0
 25  8  1  0
 25 33  2  0
 25 51  1  0
 26  7  1  0
 26 52  1  0
 27 24  1  0
 27 53  1  0
 27 54  1  0
 28 16  1  0
 28 55  1  0
 28 56  1  0
 29 22  2  0
 29 57  1  0
 30 21  2  0
 30 58  1  0
 31 28  1  0
 31 59  1  0
 31 60  1  0
 31 61  1  0
 32 26  2  0
 32 30  1  0
 32 62  1  0
 33 29  1  0
 33 63  1  0
M  END
> <Name>
CHEMBL166408

> <Clean Energy>
48.947498

> <chembl_id>
CHEMBL166408

> <chembl_pref_name>
None

> <efficacy>
0.327

> <Forcefield>
MMFF

> <ForcefieldBase>
MMFF

> <ForcefieldFFML>
<?xml version="1.0" encoding="UTF-8"?>
<!DOCTYPE ffml SYSTEM "Ffml.dtd">
<ffml version="1.0">
<forcefield name="MMFF" derivedFrom="MMFF" base="MMFF">
<atomTypes>
<atomType
name="C100"
element="C"
mass="12.011"
annotation=""/>
<atomType
name="O101"
element="O"
mass="16"
annotation=""/>
<atomType
name="H102"
element="H"
mass="1.008"
annotation=""/>
</atomTypes>
<parameters>
</parameters>
</forcefield>
</ffml>

> <Initial Potential Energy>
263.22435

> <Initial RMS Gradient>
30.36691

> <Minimization Criteria>
CONJUG> Minimization exiting with gradient tolerance ( 0.0100000) satisfied.

> <CHARMm Energy>
108.3062

> <Potential Energy>
108.3062

> <RMS Gradient>
0.00985

> <Bond Energy>
8.09748

> <Angle Energy>
13.56653

> <STRBend>
0.49465

> <Dihedral Energy>
9.70093

> <OOPLane>
0.12793

> <Van der Waals Energy>
73.2238

> <Electrostatic Energy>
3.09487

> <Hydrogen Bond Energy>
0

> <Solvation Free Energy>
0

> <HasGasteigerCharges>
true

> <REMARK99>
REMARK  99  MacroMolecule created from Mol2 file
REMARK  99  CHEMBL166408
REMARK  99  PROTEIN
REMARK  99  GASTEIGER
REMARK  99
REMARK  99

$$$$
CHEMBL3397559
  SciTegic05292516403D

 55 57  0  0  0  0            999 V2000
    1.4141   -3.4386    1.5535 C   0  0
    2.0787   -3.3008    0.1711 C   0  0  1  0  0  0
    2.6879   -1.8900    0.0288 C   0  0
    1.8486   -4.1174    2.4740 O   0  0
    0.2407   -2.7691    1.6779 O   0  0
    1.6879   -0.7894   -0.2287 C   0  0
    1.3560    0.1157    0.7892 C   0  0
    0.4069    1.1114    0.5645 C   0  0
   -0.2129    1.2155   -0.6790 C   0  0
    0.1180    0.3294   -1.7015 C   0  0
    1.0658   -0.6696   -1.4788 C   0  0
    3.1837   -4.1886   -0.0297 O   0  0
    2.9907   -5.5326   -0.1478 C   0  0
    4.1781   -6.2562   -0.3021 C   0  0
    4.1612   -7.6496   -0.3959 C   0  0
    2.9458   -8.3331   -0.3339 C   0  0
    1.7534   -7.6167   -0.1981 C   0  0
    1.7754   -6.2154   -0.1099 C   0  0
    2.9655   -9.8083   -0.3933 C   0  0
    1.8982  -10.5374   -0.2833 N   0  0
    2.2598  -11.8987   -0.3591 O   0  0
    1.0933  -12.6906   -0.1133 C   0  0
    1.4600  -14.1719   -0.1390 C   0  0
    0.2314  -15.0340    0.1683 C   0  0
    0.3941  -16.5381    0.0875 C   0  0
   -0.7677  -17.3307    0.0474 C   0  0
   -0.6907  -18.7252    0.0028 C   0  0
    0.5519  -19.3514    0.0042 C   0  0
    1.7130  -18.5834    0.0531 C   0  0
    1.6355  -17.1870    0.0986 C   0  0
    1.3302   -3.4835   -0.6095 H   0  0
    3.2835   -1.6535    0.9213 H   0  0
    3.4134   -1.8818   -0.7968 H   0  0
   -0.0126   -2.1997    0.9225 H   0  0
    1.8269    0.0408    1.7684 H   0  0
    0.1528    1.8116    1.3576 H   0  0
   -0.9475    1.9982   -0.8543 H   0  0
   -0.3599    0.4214   -2.6742 H   0  0
    1.3213   -1.3470   -2.2918 H   0  0
    5.1286   -5.7263   -0.3304 H   0  0
    5.1008   -8.1860   -0.4978 H   0  0
    0.8046   -8.1473   -0.1433 H   0  0
    0.8282   -5.7025    0.0139 H   0  0
    3.9545  -10.2834   -0.5271 H   0  0
    0.6808  -12.4209    0.8663 H   0  0
    0.3462  -12.4702   -0.8849 H   0  0
    1.8787  -14.4265   -1.1206 H   0  0
    2.2579  -14.3565    0.5905 H   0  0
   -0.1245  -14.7952    1.1790 H   0  0
   -0.5664  -14.7477   -0.5302 H   0  0
   -1.7486  -16.8592    0.0531 H   0  0
   -1.5986  -19.3241   -0.0289 H   0  0
    0.6144  -20.4370   -0.0278 H   0  0
    2.6836  -19.0735    0.0603 H   0  0
    2.5638  -16.6248    0.1458 H   0  0
  1  2  1  0
  1  4  2  0
  1  5  1  0
  2  3  1  0
  2 12  1  0
  2 31  1  0
  3  6  1  0
  3 32  1  0
  3 33  1  0
  5 34  1  0
  6  7  1  0
  6 11  2  0
  7  8  2  0
  7 35  1  0
  8  9  1  0
  8 36  1  0
  9 10  2  0
  9 37  1  0
 10 11  1  0
 10 38  1  0
 11 39  1  0
 12 13  1  0
 13 14  1  0
 13 18  2  0
 14 15  2  0
 14 40  1  0
 15 16  1  0
 15 41  1  0
 16 17  2  0
 16 19  1  0
 17 18  1  0
 17 42  1  0
 18 43  1  0
 19 20  2  0
 19 44  1  0
 20 21  1  0
 21 22  1  0
 22 23  1  0
 22 45  1  0
 22 46  1  0
 23 24  1  0
 23 47  1  0
 23 48  1  0
 24 25  1  0
 24 49  1  0
 24 50  1  0
 25 26  1  0
 25 30  2  0
 26 27  2  0
 26 51  1  0
 27 28  1  0
 27 52  1  0
 28 29  2  0
 28 53  1  0
 29 30  1  0
 29 54  1  0
 30 55  1  0
M  END
> <Name>
CHEMBL3397559

> <Clean Energy>
12.2893

> <chembl_id>
CHEMBL3397559

> <chembl_pref_name>
None

> <efficacy>
0.26

> <Forcefield>
MMFF

> <ForcefieldBase>
MMFF

> <ForcefieldFFML>
<?xml version="1.0" encoding="UTF-8"?>
<!DOCTYPE ffml SYSTEM "Ffml.dtd">
<ffml version="1.0">
<forcefield name="MMFF" derivedFrom="MMFF" base="MMFF">
<atomTypes>
<atomType
name="C100"
element="C"
mass="12.011"
annotation=""/>
<atomType
name="O101"
element="O"
mass="16"
annotation=""/>
<atomType
name="N102"
element="N"
mass="14.007"
annotation=""/>
<atomType
name="H103"
element="H"
mass="1.008"
annotation=""/>
</atomTypes>
<parameters>
</parameters>
</forcefield>
</ffml>

> <Initial Potential Energy>
156.42919

> <Initial RMS Gradient>
28.82402

> <Minimization Criteria>
CONJUG> Minimization exiting with gradient tolerance ( 0.0100000) satisfied.

> <CHARMm Energy>
90.24456

> <Potential Energy>
90.24456

> <RMS Gradient>
0.0097

> <Bond Energy>
6.22017

> <Angle Energy>
16.79418

> <STRBend>
0.40319

> <Dihedral Energy>
-4.98335

> <OOPLane>
0.06121

> <Van der Waals Energy>
58.4897

> <Electrostatic Energy>
13.25946

> <Hydrogen Bond Energy>
0

> <Solvation Free Energy>
0

> <HasGasteigerCharges>
true

> <REMARK99>
REMARK  99  MacroMolecule created from Mol2 file
REMARK  99  CHEMBL3397559
REMARK  99  PROTEIN
REMARK  99  GASTEIGER
REMARK  99
REMARK  99

$$$$
CHEMBL178380
  SciTegic05292516403D

 58 63  0  0  0  0            999 V2000
    7.6057    0.4106   -0.9484 N   0  0
    8.5618    0.7005   -0.0014 C   0  0
    7.8700    2.6313   -0.9715 N   0  0
    7.1352    1.6231   -1.4270 C   0  0
    8.7203    2.0737   -0.0519 C   0  0
    7.2494   -0.9564   -1.2799 C   0  0  1  0  0  0
    3.4471   -5.8705    0.8841 C   0  0
    4.3522   -7.8495    0.7145 N   0  0
    3.1850   -7.2280    0.7759 N   0  0
    5.2533   -6.8625    0.7890 N   0  0
    9.1972   -0.1745    0.8022 N   0  0
    5.9883   -1.4583   -0.6287 C   0  0
    4.7675   -5.6181    0.9046 N   0  0
    2.3666   -4.8907    1.0195 C   0  0
    5.3325   -2.3644   -1.4724 C   0  0
    2.4905   -3.5084    0.7344 C   0  0
    3.7153   -2.8428    0.2494 C   0  0
    9.6664    2.6641    0.7990 C   0  0
    7.0081   -1.3090   -2.7635 C   0  0
    4.2000   -3.0529   -1.0528 C   0  0
    5.5323   -1.2399    0.6604 C   0  0
   10.0976    0.4183    1.6252 C   0  0
   10.3691    1.7933    1.6495 C   0  0
    6.0719   -2.5300   -2.7653 C   0  0
    4.3944   -1.9287    1.0897 C   0  0
    5.9477    1.7869   -2.3218 C   0  0
    1.1238   -5.3809    1.4854 C   0  0
    1.3582   -2.6823    0.9262 C   0  0
    9.9287    4.1358    0.8422 C   0  0
   10.8364   -0.4907    2.5655 C   0  0
    5.2124    3.0959   -2.0668 C   0  0
    0.0276   -4.5399    1.6745 C   0  0
    0.1450   -3.1881    1.3913 C   0  0
    8.0683   -1.6020   -0.9329 H   0  0
    6.2507   -7.0524    0.7640 H   0  0
    6.5224   -0.5018   -3.3163 H   0  0
    7.9465   -1.5161   -3.2899 H   0  0
    3.7072   -3.7591   -1.7160 H   0  0
    6.0568   -0.5756    1.3416 H   0  0
   11.1187    2.2003    2.3290 H   0  0
    6.6456   -3.4626   -2.7509 H   0  0
    5.4029   -2.5176   -3.6305 H   0  0
    4.0377   -1.7653    2.1056 H   0  0
    6.2785    1.7627   -3.3657 H   0  0
    5.2353    0.9700   -2.1701 H   0  0
    1.0033   -6.4383    1.7196 H   0  0
    1.4213   -1.6176    0.7032 H   0  0
   10.9833    4.3383    0.6291 H   0  0
    9.6822    4.5338    1.8317 H   0  0
    9.3268    4.6721    0.1019 H   0  0
   10.6360   -0.2042    3.6026 H   0  0
   11.9131   -0.4341    2.3771 H   0  0
   10.5215   -1.5307    2.4322 H   0  0
    4.3353    3.1699   -2.7177 H   0  0
    5.8544    3.9602   -2.2678 H   0  0
    4.8723    3.1621   -1.0276 H   0  0
   -0.9100   -4.9441    2.0440 H   0  0
   -0.7011   -2.5204    1.5294 H   0  0
  2  1  1  0
  3  4  2  0
  4  1  1  0
  5  2  2  0
  5  3  1  0
  6  1  1  0
  6 34  1  0
  7 14  1  0
  8  9  2  0
  9  7  1  0
 10  8  1  0
 10 13  1  0
 10 35  1  0
 11  2  1  0
 12  6  1  0
 13  7  2  0
 14 16  2  0
 15 12  2  0
 15 24  1  0
 16 17  1  0
 17 20  2  0
 17 25  1  0
 18  5  1  0
 19  6  1  0
 19 36  1  0
 19 37  1  0
 20 15  1  0
 20 38  1  0
 21 12  1  0
 21 39  1  0
 22 11  2  0
 23 18  2  0
 23 22  1  0
 23 40  1  0
 24 19  1  0
 24 41  1  0
 24 42  1  0
 25 21  2  0
 25 43  1  0
 26  4  1  0
 26 44  1  0
 26 45  1  0
 27 14  1  0
 27 46  1  0
 28 16  1  0
 28 47  1  0
 29 18  1  0
 29 48  1  0
 29 49  1  0
 29 50  1  0
 30 22  1  0
 30 51  1  0
 30 52  1  0
 30 53  1  0
 31 26  1  0
 31 54  1  0
 31 55  1  0
 31 56  1  0
 32 27  2  0
 32 33  1  0
 32 57  1  0
 33 28  2  0
 33 58  1  0
M  END
> <Name>
CHEMBL178380

> <Clean Energy>
79.920502

> <chembl_id>
CHEMBL178380

> <chembl_pref_name>
None

> <efficacy>
0.173913043

> <Forcefield>
MMFF

> <ForcefieldBase>
MMFF

> <ForcefieldFFML>
<?xml version="1.0" encoding="UTF-8"?>
<!DOCTYPE ffml SYSTEM "Ffml.dtd">
<ffml version="1.0">
<forcefield name="MMFF" derivedFrom="MMFF" base="MMFF">
<atomTypes>
<atomType
name="N100"
element="N"
mass="14.007"
annotation=""/>
<atomType
name="C101"
element="C"
mass="12.011"
annotation=""/>
<atomType
name="H102"
element="H"
mass="1.008"
annotation=""/>
</atomTypes>
<parameters>
</parameters>
</forcefield>
</ffml>

> <Initial Potential Energy>
256.00986

> <Initial RMS Gradient>
39.51789

> <Minimization Criteria>
CONJUG> Minimization exiting with gradient tolerance ( 0.0100000) satisfied.

> <CHARMm Energy>
103.84547

> <Potential Energy>
103.84547

> <RMS Gradient>
0.00939

> <Bond Energy>
8.01851

> <Angle Energy>
17.2866

> <STRBend>
-0.60414

> <Dihedral Energy>
6.26438

> <OOPLane>
0.17329

> <Van der Waals Energy>
56.04617

> <Electrostatic Energy>
16.66066

> <Hydrogen Bond Energy>
0

> <Solvation Free Energy>
0

> <HasGasteigerCharges>
true

> <REMARK99>
REMARK  99  MacroMolecule created from Mol2 file
REMARK  99  CHEMBL178380
REMARK  99  PROTEIN
REMARK  99  GASTEIGER
REMARK  99
REMARK  99

$$$$
CHEMBL3263249
  SciTegic05292516403D

 52 55  0  0  0  0            999 V2000
   23.8611   -4.8412   -0.2419 C   0  0
   23.7365   -6.1169    0.2959 C   0  0
   24.8473   -6.9584    0.4145 C   0  0
   26.1174   -6.5330    0.0036 C   0  0
   26.2400   -5.2266   -0.5078 C   0  0
   25.1148   -4.3944   -0.6419 C   0  0
   27.5420   -4.6120   -0.8725 C   0  0
   28.5241   -4.7342    0.0948 N   0  0
   27.6327   -4.0304   -1.9456 O   0  0
   29.7422   -4.0238    0.1532 C   0  0
   27.2433   -7.3977    0.0127 N   0  0
   27.3231   -8.6316    0.6337 C   0  0
   28.5171   -9.4557    0.3068 C   0  0
   26.4910   -9.1061    1.3992 O   0  0
   28.3683  -10.8497    0.2914 C   0  0
   29.4551  -11.6654   -0.0260 C   0  0
   29.7638   -8.8834    0.0277 C   0  0
   30.8599   -9.6966   -0.2992 C   0  0
   30.7032  -11.1029   -0.3290 C   0  0
   31.8017  -11.9095   -0.6581 C   0  0
   33.0400  -11.3390   -0.9560 C   0  0
   33.1933   -9.9559   -0.9265 C   0  0
   32.1115   -9.1387   -0.5981 C   0  0
   30.6165   -4.3256    1.2032 C   0  0
   31.7763   -3.5693    1.4075 C   0  0
   32.0681   -2.4813    0.5772 C   0  0
   31.2210   -2.2143   -0.5043 C   0  0
   30.0720   -2.9839   -0.7174 C   0  0
   33.2114   -1.5565    0.9052 C   0  0
   34.5756   -2.0021    0.4518 C   0  0
   34.7385   -2.0658   -0.8923 O   0  0
   35.5212   -2.1596    1.2143 O   0  0
   22.9799   -4.2105   -0.3470 H   0  0
   22.7588   -6.4811    0.6063 H   0  0
   24.6554   -7.9612    0.7931 H   0  0
   25.2344   -3.3901   -1.0444 H   0  0
   28.3086   -5.3135    0.8998 H   0  0
   28.0260   -7.1035   -0.5600 H   0  0
   27.4065  -11.3131    0.5206 H   0  0
   29.3183  -12.7465   -0.0344 H   0  0
   29.9063   -7.8081    0.0811 H   0  0
   31.7019  -12.9926   -0.6838 H   0  0
   33.8828  -11.9769   -1.2096 H   0  0
   34.1561   -9.5087   -1.1580 H   0  0
   32.2576   -8.0610   -0.5819 H   0  0
   30.3938   -5.1293    1.9009 H   0  0
   32.4195   -3.8040    2.2550 H   0  0
   31.4001   -1.3628   -1.1595 H   0  0
   29.4194   -2.6946   -1.5368 H   0  0
   33.0283   -0.5571    0.4900 H   0  0
   33.2503   -1.4112    1.9929 H   0  0
   33.8753   -2.0661   -1.3545 H   0  0
  1  2  2  0
  1 33  1  0
  2  3  1  0
  2 34  1  0
  3  4  2  0
  3 35  1  0
  4  5  1  0
  4 11  1  0
  5  6  2  0
  5  7  1  0
  6  1  1  0
  6 36  1  0
  7  8  1  0
  7  9  2  0
  8 10  1  0
  8 37  1  0
 10 24  2  0
 11 12  1  0
 11 38  1  0
 12 13  1  0
 12 14  2  0
 13 15  2  0
 15 16  1  0
 15 39  1  0
 16 19  2  0
 16 40  1  0
 17 13  1  0
 17 41  1  0
 18 17  2  0
 18 19  1  0
 19 20  1  0
 20 21  2  0
 20 42  1  0
 21 22  1  0
 21 43  1  0
 22 23  2  0
 22 44  1  0
 23 18  1  0
 23 45  1  0
 24 25  1  0
 24 46  1  0
 25 26  2  0
 25 47  1  0
 26 27  1  0
 26 29  1  0
 27 28  2  0
 27 48  1  0
 28 10  1  0
 28 49  1  0
 29 30  1  0
 29 50  1  0
 29 51  1  0
 30 31  1  0
 30 32  2  0
 31 52  1  0
M  END
> <Name>
CHEMBL3263249

> <Clean Energy>
2.27591

> <chembl_id>
CHEMBL3263249

> <chembl_pref_name>
None

> <efficacy>
0.237416904

> <Forcefield>
MMFF

> <ForcefieldBase>
MMFF

> <ForcefieldFFML>
<?xml version="1.0" encoding="UTF-8"?>
<!DOCTYPE ffml SYSTEM "Ffml.dtd">
<ffml version="1.0">
<forcefield name="MMFF" derivedFrom="MMFF" base="MMFF">
<atomTypes>
<atomType
name="C100"
element="C"
mass="12.011"
annotation=""/>
<atomType
name="N101"
element="N"
mass="14.007"
annotation=""/>
<atomType
name="O102"
element="O"
mass="16"
annotation=""/>
<atomType
name="H103"
element="H"
mass="1.008"
annotation=""/>
</atomTypes>
<parameters>
</parameters>
</forcefield>
</ffml>

> <Initial Potential Energy>
260.70235

> <Initial RMS Gradient>
80.45768

> <Minimization Criteria>
STEEPD> Minimization exiting with gradient tolerance ( 3.0000000) satisfied.

> <CHARMm Energy>
62.8642

> <Potential Energy>
62.8642

> <RMS Gradient>
0.11213

> <Bond Energy>
7.39021

> <Angle Energy>
10.25397

> <STRBend>
1.14887

> <Dihedral Energy>
13.09

> <OOPLane>
0.67957

> <Van der Waals Energy>
74.07036

> <Electrostatic Energy>
-43.76877

> <Hydrogen Bond Energy>
0

> <Solvation Free Energy>
0

> <HasGasteigerCharges>
true

> <REMARK99>
REMARK  99  MacroMolecule created from Mol2 file
REMARK  99  CHEMBL3263249
REMARK  99  PROTEIN
REMARK  99  GASTEIGER
REMARK  99
REMARK  99

$$$$
CHEMBL4552317
  SciTegic05292516403D

 50 53  0  0  0  0            999 V2000
   21.4851   -3.0389   -1.2322 C   0  0
   21.3537   -3.9896   -0.2215 C   0  0
   22.4747   -4.4624    0.4779 C   0  0
   22.7490   -2.5429   -1.5539 C   0  0
   23.8932   -2.9768   -0.8647 C   0  0
   23.7340   -3.9339    0.1386 C   0  0
   25.0140   -4.1473    0.6138 N   0  0
   25.8685   -3.2853   -0.0513 C   0  0
   25.2154   -2.6195   -0.9810 N   0  0
   25.3759   -5.0920    1.6680 C   0  0
   26.4743   -6.0434    1.2578 C   0  0
   26.4303   -6.7201    0.0312 C   0  0
   27.5152   -7.4912   -0.3886 C   0  0
   28.6575   -7.6241    0.4143 C   0  0
   28.6600   -7.0188    1.6786 C   0  0
   27.5808   -6.2369    2.0970 C   0  0
   29.8250   -8.3724   -0.0716 C   0  0
   29.7063   -9.7685   -0.2175 C   0  0
   30.7705  -10.5413   -0.6792 C   0  0
   31.9803   -9.9358   -0.9972 C   0  0
   32.1299   -8.5577   -0.8561 C   0  0
   31.0603   -7.7677   -0.4014 C   0  0
   31.2488   -6.2932   -0.3398 C   0  0
   32.5330   -5.9438   -0.1213 O   0  0
   30.3983   -5.4313   -0.4542 O   0  0
   27.3366   -3.1577    0.2284 C   0  0
   27.8968   -1.8047   -0.2158 C   0  0
   29.3802   -1.6885    0.0991 C   0  0
   22.9714   -1.3616   -2.7679 Cl  0  0
   20.6043   -2.6785   -1.7603 H   0  0
   20.3616   -4.3665    0.0286 H   0  0
   22.3593   -5.2058    1.2599 H   0  0
   25.6698   -4.4824    2.5304 H   0  0
   24.4931   -5.6726    1.9512 H   0  0
   25.5793   -6.6063   -0.6382 H   0  0
   27.4811   -7.9558   -1.3723 H   0  0
   29.5241   -7.1234    2.3321 H   0  0
   27.6364   -5.7445    3.0656 H   0  0
   28.7673  -10.2616    0.0306 H   0  0
   30.6493  -11.6150   -0.7913 H   0  0
   32.8087  -10.5335   -1.3638 H   0  0
   33.0827   -8.1033   -1.1213 H   0  0
   32.4606   -4.9642   -0.1125 H   0  0
   27.5220   -3.2751    1.3018 H   0  0
   27.8688   -3.9576   -0.2981 H   0  0
   27.7495   -1.6687   -1.2942 H   0  0
   27.3571   -0.9918    0.2852 H   0  0
   29.7607   -0.7140   -0.2228 H   0  0
   29.9532   -2.4644   -0.4184 H   0  0
   29.5621   -1.7859    1.1742 H   0  0
  1  2  2  0
  1 30  1  0
  2  3  1  0
  2 31  1  0
  3  6  2  0
  3 32  1  0
  4  1  1  0
  4 29  1  0
  5  4  2  0
  5  6  1  0
  6  7  1  0
  7  8  1  0
  7 10  1  0
  8  9  2  0
  8 26  1  0
  9  5  1  0
 10 11  1  0
 10 33  1  0
 10 34  1  0
 11 12  2  0
 12 13  1  0
 12 35  1  0
 13 14  2  0
 13 36  1  0
 14 15  1  0
 14 17  1  0
 15 16  2  0
 15 37  1  0
 16 11  1  0
 16 38  1  0
 17 18  2  0
 18 19  1  0
 18 39  1  0
 19 20  2  0
 19 40  1  0
 20 21  1  0
 20 41  1  0
 21 22  2  0
 21 42  1  0
 22 17  1  0
 22 23  1  0
 23 24  1  0
 23 25  2  0
 24 43  1  0
 26 27  1  0
 26 44  1  0
 26 45  1  0
 27 28  1  0
 27 46  1  0
 27 47  1  0
 28 48  1  0
 28 49  1  0
 28 50  1  0
M  END
> <Name>
CHEMBL4552317

> <Clean Energy>
46.7715

> <chembl_id>
CHEMBL4552317

> <chembl_pref_name>
None

> <efficacy>
0.417853751

> <Forcefield>
MMFF

> <ForcefieldBase>
MMFF

> <ForcefieldFFML>
<?xml version="1.0" encoding="UTF-8"?>
<!DOCTYPE ffml SYSTEM "Ffml.dtd">
<ffml version="1.0">
<forcefield name="MMFF" derivedFrom="MMFF" base="MMFF">
<atomTypes>
<atomType
name="C100"
element="C"
mass="12.011"
annotation=""/>
<atomType
name="N101"
element="N"
mass="14.007"
annotation=""/>
<atomType
name="O102"
element="O"
mass="16"
annotation=""/>
<atomType
name="Cl103"
element="Cl"
mass="35.453"
annotation=""/>
<atomType
name="H104"
element="H"
mass="1.008"
annotation=""/>
</atomTypes>
<parameters>
</parameters>
</forcefield>
</ffml>

> <Initial Potential Energy>
258.28085

> <Initial RMS Gradient>
38.21829

> <Minimization Criteria>
STEEPD> Minimization exiting with gradient tolerance ( 3.0000000) satisfied.

> <CHARMm Energy>
84.39592

> <Potential Energy>
84.39592

> <RMS Gradient>
0.03729

> <Bond Energy>
6.93663

> <Angle Energy>
11.12628

> <STRBend>
-0.11032

> <Dihedral Energy>
6.02179

> <OOPLane>
0.05608

> <Van der Waals Energy>
54.222

> <Electrostatic Energy>
6.14346

> <Hydrogen Bond Energy>
0

> <Solvation Free Energy>
0

> <HasGasteigerCharges>
true

> <REMARK99>
REMARK  99  MacroMolecule created from Mol2 file
REMARK  99  CHEMBL4552317
REMARK  99  PROTEIN
REMARK  99  GASTEIGER
REMARK  99
REMARK  99

$$$$
CHEMBL489506
  SciTegic05292516403D

 57 61  0  0  0  0            999 V2000
   -0.2265   -7.3779    0.2262 C   0  0
   -0.2670   -8.4827   -0.5486 N   0  0
   -0.7049   -9.4496    0.2937 N   0  0
   -0.9871   -9.0451    1.5608 N   0  0
   -0.6997   -7.7266    1.5208 C   0  0
   -0.8471  -10.8012   -0.1158 C   0  0
   -1.2937  -11.7751    0.7912 C   0  0
   -1.4218  -13.1060    0.3819 C   0  0
   -1.1068  -13.4672   -0.9278 C   0  0
   -0.6652  -12.5013   -1.8325 C   0  0
   -0.5339  -11.1698   -1.4315 C   0  0
    1.4985    6.8651   -0.3423 C   0  0
    2.2764    7.4743    0.6395 C   0  0
    3.1776    6.7188    1.3868 C   0  0
    3.3035    5.3485    1.1501 C   0  0
    2.5317    4.7199    0.1620 C   0  0
    1.6247    5.4946   -0.5770 C   0  0
    2.6426    3.2922   -0.1032 C   0  0
    3.5773    2.5917    0.6176 O   0  0
    3.4700    1.3030    0.1812 C   0  0
    2.4456    1.2484   -0.7425 C   0  0
    1.9368    2.5270   -0.9174 N   0  0
    4.4169    0.3361    0.7628 C   0  0
    1.9100    0.1048   -1.5434 C   0  0
    1.7594   -1.2210   -0.7806 C   0  0
    1.1399   -2.1871   -1.6431 O   0  0
    0.9077   -3.4423   -1.1366 C   0  0
    1.3926   -3.9455    0.0681 C   0  0
    1.0576   -5.2465    0.4873 C   0  0
    0.2135   -6.0678   -0.2751 C   0  0
   -0.2305   -5.5784   -1.5091 C   0  0
    0.1142   -4.2794   -1.9311 C   0  0
   -0.9247   -6.9198    2.7188 C   0  0
   -1.4170   -7.6737    3.7532 O   0  0
   -0.7114   -5.7207    2.8281 O   0  0
   -1.5445  -11.5200    1.8181 H   0  0
   -1.7666  -13.8627    1.0839 H   0  0
   -1.2056  -14.5030   -1.2443 H   0  0
   -0.4199  -12.7807   -2.8542 H   0  0
   -0.1848  -10.4373   -2.1565 H   0  0
    0.7935    7.4555   -0.9224 H   0  0
    2.1767    8.5397    0.8241 H   0  0
    3.7806    7.1931    2.1560 H   0  0
    4.0023    4.7677    1.7490 H   0  0
    1.0076    5.0213   -1.3397 H   0  0
    3.9068   -0.3124    1.4813 H   0  0
    5.2341    0.8439    1.2846 H   0  0
    4.8576   -0.2903   -0.0187 H   0  0
    0.9322    0.3829   -1.9575 H   0  0
    2.5597   -0.0550   -2.4131 H   0  0
    2.7501   -1.5829   -0.4854 H   0  0
    1.1401   -1.0710    0.1123 H   0  0
    2.0260   -3.3529    0.7201 H   0  0
    1.4553   -5.5907    1.4402 H   0  0
   -0.8684   -6.1927   -2.1429 H   0  0
   -0.2600   -3.9068   -2.8830 H   0  0
   -1.5246   -8.6027    3.4349 H   0  0
  1  2  2  0
  2  3  1  0
  3  4  1  0
  3  6  1  0
  4  5  2  0
  5  1  1  0
  5 33  1  0
  6  7  2  0
  7  8  1  0
  7 36  1  0
  8  9  2  0
  8 37  1  0
  9 10  1  0
  9 38  1  0
 10 11  2  0
 10 39  1  0
 11  6  1  0
 11 40  1  0
 12 13  2  0
 12 41  1  0
 13 14  1  0
 13 42  1  0
 14 15  2  0
 14 43  1  0
 15 16  1  0
 15 44  1  0
 16 17  2  0
 16 18  1  0
 17 12  1  0
 17 45  1  0
 18 19  1  0
 19 20  1  0
 20 21  2  0
 20 23  1  0
 21 22  1  0
 21 24  1  0
 22 18  2  0
 23 46  1  0
 23 47  1  0
 23 48  1  0
 24 25  1  0
 24 49  1  0
 24 50  1  0
 25 26  1  0
 25 51  1  0
 25 52  1  0
 26 27  1  0
 27 28  2  0
 28 29  1  0
 28 53  1  0
 29 30  2  0
 29 54  1  0
 30  1  1  0
 30 31  1  0
 31 32  2  0
 31 55  1  0
 32 27  1  0
 32 56  1  0
 33 34  1  0
 33 35  2  0
 34 57  1  0
M  END
> <Name>
CHEMBL489506

> <Clean Energy>
48.3932

> <chembl_id>
CHEMBL489506

> <chembl_pref_name>
None

> <efficacy>
0.23

> <Forcefield>
MMFF

> <ForcefieldBase>
MMFF

> <ForcefieldFFML>
<?xml version="1.0" encoding="UTF-8"?>
<!DOCTYPE ffml SYSTEM "Ffml.dtd">
<ffml version="1.0">
<forcefield name="MMFF" derivedFrom="MMFF" base="MMFF">
<atomTypes>
<atomType
name="C100"
element="C"
mass="12.011"
annotation=""/>
<atomType
name="N101"
element="N"
mass="14.007"
annotation=""/>
<atomType
name="O102"
element="O"
mass="16"
annotation=""/>
<atomType
name="H103"
element="H"
mass="1.008"
annotation=""/>
</atomTypes>
<parameters>
</parameters>
</forcefield>
</ffml>

> <Initial Potential Energy>
246.86452

> <Initial RMS Gradient>
37.91436

> <Minimization Criteria>
CONJUG> Minimization exiting with gradient tolerance ( 0.0100000) satisfied.

> <CHARMm Energy>
104.45424

> <Potential Energy>
104.45424

> <RMS Gradient>
0.00947

> <Bond Energy>
7.45287

> <Angle Energy>
12.90794

> <STRBend>
0.53417

> <Dihedral Energy>
3.06698

> <OOPLane>
0.05255

> <Van der Waals Energy>
61.29748

> <Electrostatic Energy>
19.14224

> <Hydrogen Bond Energy>
0

> <Solvation Free Energy>
0

> <HasGasteigerCharges>
true

> <REMARK99>
REMARK  99  MacroMolecule created from Mol2 file
REMARK  99  CHEMBL489506
REMARK  99  PROTEIN
REMARK  99  GASTEIGER
REMARK  99
REMARK  99

$$$$
CHEMBL2204686
  SciTegic05292516403D

 51 53  0  0  0  0            999 V2000
   29.9116  -11.8054   -0.0655 C   0  0
   28.3834  -11.9129   -0.2919 C   0  0
   27.8822  -10.5712   -0.8517 C   0  0
   30.4816  -11.9622    1.0066 O   0  0
   30.6346  -11.5191   -1.1814 O   0  0
   27.8342  -12.2135    1.0151 O   0  0
   26.4809  -12.1546    1.1492 C   0  0
   25.9066  -10.9895    1.6489 C   0  0
   24.5245  -10.9129    1.7998 C   0  0
   23.7136  -12.0133    1.4845 C   0  0
   24.3126  -13.2003    1.0416 C   0  0
   25.6983  -13.2763    0.8927 C   0  0
   22.2157  -11.8945    1.6045 C   0  0
   21.7726  -11.0166    0.5665 O   0  0
   20.4435  -10.7037    0.5257 C   0  0
   20.0661   -9.8787   -0.5414 C   0  0
   18.7370   -9.4821   -0.7122 C   0  0
   17.7678   -9.8996    0.2035 C   0  0
   18.1420  -10.7363    1.2644 C   0  0
   19.4737  -11.1333    1.4287 C   0  0
   16.3284   -9.5556    0.0548 C   0  0
   15.8593   -8.2493   -0.4827 C   0  0
   16.5817   -7.0644   -0.3022 C   0  0
   16.0742   -5.8552   -0.7908 C   0  0
   14.8409   -5.8197   -1.4451 C   0  0
   14.1088   -6.9943   -1.6119 C   0  0
   14.6146   -8.2045   -1.1290 C   0  0
   15.4964  -10.3930    0.3990 O   0  0
   28.1235  -13.0688   -1.2677 C   0  0
   26.8042  -10.5902   -1.0439 H   0  0
   28.3656  -10.3064   -1.7973 H   0  0
   28.0748   -9.7585   -0.1421 H   0  0
   30.1161  -11.4027   -1.9980 H   0  0
   26.5249  -10.1359    1.9070 H   0  0
   24.0745   -9.9866    2.1521 H   0  0
   23.7043  -14.0706    0.8065 H   0  0
   26.1565  -14.2084    0.5757 H   0  0
   21.7433  -12.8779    1.4932 H   0  0
   21.9752  -11.4864    2.5942 H   0  0
   20.8226   -9.5552   -1.2542 H   0  0
   18.4691   -8.8733   -1.5719 H   0  0
   17.3882  -11.0905    1.9666 H   0  0
   19.7122  -11.7804    2.2666 H   0  0
   17.5263   -7.0567    0.2356 H   0  0
   16.6390   -4.9370   -0.6475 H   0  0
   14.4415   -4.8762   -1.8149 H   0  0
   13.1402   -6.9661   -2.1085 H   0  0
   14.0326   -9.1165   -1.2499 H   0  0
   27.0616  -13.1488   -1.5210 H   0  0
   28.4248  -14.0249   -0.8245 H   0  0
   28.6671  -12.9506   -2.2104 H   0  0
  1  2  1  0
  1  4  2  0
  1  5  1  0
  2  3  1  0
  2  6  1  0
  2 29  1  0
  3 30  1  0
  3 31  1  0
  3 32  1  0
  5 33  1  0
  6  7  1  0
  7  8  1  0
  7 12  2  0
  8  9  2  0
  8 34  1  0
  9 10  1  0
  9 35  1  0
 10 11  2  0
 10 13  1  0
 11 12  1  0
 11 36  1  0
 12 37  1  0
 13 14  1  0
 13 38  1  0
 13 39  1  0
 14 15  1  0
 15 16  1  0
 15 20  2  0
 16 17  2  0
 16 40  1  0
 17 18  1  0
 17 41  1  0
 18 19  2  0
 18 21  1  0
 19 20  1  0
 19 42  1  0
 20 43  1  0
 21 22  1  0
 21 28  2  0
 22 23  1  0
 22 27  2  0
 23 24  2  0
 23 44  1  0
 24 25  1  0
 24 45  1  0
 25 26  2  0
 25 46  1  0
 26 27  1  0
 26 47  1  0
 27 48  1  0
 29 49  1  0
 29 50  1  0
 29 51  1  0
M  END
> <Name>
CHEMBL2204686

> <Clean Energy>
21.717501

> <chembl_id>
CHEMBL2204686

> <chembl_pref_name>
None

> <efficacy>
0.180436847

> <Forcefield>
MMFF

> <ForcefieldBase>
MMFF

> <ForcefieldFFML>
<?xml version="1.0" encoding="UTF-8"?>
<!DOCTYPE ffml SYSTEM "Ffml.dtd">
<ffml version="1.0">
<forcefield name="MMFF" derivedFrom="MMFF" base="MMFF">
<atomTypes>
<atomType
name="C100"
element="C"
mass="12.011"
annotation=""/>
<atomType
name="O101"
element="O"
mass="16"
annotation=""/>
<atomType
name="H102"
element="H"
mass="1.008"
annotation=""/>
</atomTypes>
<parameters>
</parameters>
</forcefield>
</ffml>

> <Initial Potential Energy>
233.81641

> <Initial RMS Gradient>
35.39405

> <Minimization Criteria>
CONJUG> Minimization exiting with gradient tolerance ( 0.0100000) satisfied.

> <CHARMm Energy>
129.2995

> <Potential Energy>
129.2995

> <RMS Gradient>
0.00965

> <Bond Energy>
6.66776

> <Angle Energy>
17.79975

> <STRBend>
1.26734

> <Dihedral Energy>
14.03751

> <OOPLane>
0.10616

> <Van der Waals Energy>
63.83797

> <Electrostatic Energy>
25.583

> <Hydrogen Bond Energy>
0

> <Solvation Free Energy>
0

> <HasGasteigerCharges>
true

> <REMARK99>
REMARK  99  MacroMolecule created from Mol2 file
REMARK  99  CHEMBL2204686
REMARK  99  PROTEIN
REMARK  99  GASTEIGER
REMARK  99
REMARK  99

$$$$
CHEMBL2322448
  SciTegic05292516403D

 66 72  0  0  0  0            999 V2000
   23.0508   -1.9273    0.4920 C   0  0
   24.0051   -2.3179    1.4377 C   0  0
   24.6838   -3.5240    1.2860 C   0  0
   24.3965   -4.3318    0.1938 C   0  0
   23.4431   -3.9560   -0.7498 C   0  0
   22.7499   -2.7428   -0.6122 C   0  0
   19.5468   -2.1404   -0.6546 C   0  0
   20.6734   -1.4882   -1.2210 N   0  0
   20.7475   -0.0969   -1.3594 C   0  0
   19.7541    0.7058   -0.9365 C   0  0
   18.5218   -1.2335   -0.1946 C   0  0
   18.6165    0.1236   -0.3357 C   0  0
   17.5513    0.7848    0.1617 N   0  0
   16.7509   -0.1685    0.6242 C   0  0
   17.3198   -1.4304    0.4532 N   0  0
   15.4099    0.1164    1.2271 C   0  0
   15.5311    0.9991    2.4611 C   0  0
   16.8309   -2.7265    0.8919 C   0  0  1  0  0  0
   15.6190   -4.0099    2.5971 C   0  0
   16.6575   -2.8921    2.4148 C   0  0
   14.8019   -3.8817    1.3458 C   0  0
   15.4757   -3.1309    0.3728 C   0  0
   14.9199   -2.9333   -0.8810 C   0  0
   13.6658   -3.4913   -1.1485 C   0  0
   12.9866   -4.2674   -0.1818 C   0  0
   13.5676   -4.4545    1.0836 C   0  0
   11.6806   -4.8634   -0.4899 C   0  0
   10.5421   -4.1184   -0.1087 C   0  0
    9.2526   -4.5759   -0.3604 C   0  0
    9.0700   -5.7941   -0.9956 C   0  0
   10.1791   -6.5519   -1.3723 C   0  0
   11.5000   -6.1139   -1.1344 C   0  0
   12.5759   -7.0113   -1.5930 C   0  0
   13.9287   -6.8249   -1.4698 N   0  0
   14.6000   -7.8285   -2.0471 N   0  0
   13.6690   -8.6534   -2.4946 N   0  0
   12.4161   -8.1699   -2.2200 N   0  0
   19.4551   -3.3619   -0.5711 O   0  0
   21.7702   -2.3276   -1.6926 C   0  0
   25.0584   -5.4859    0.0381 F   0  0
   22.5475   -0.9740    0.6329 H   0  0
   24.2230   -1.6738    2.2864 H   0  0
   25.4333   -3.8373    2.0062 H   0  0
   23.2567   -4.6183   -1.5914 H   0  0
   21.6437    0.3097   -1.8195 H   0  0
   19.8068    1.7827   -1.0399 H   0  0
   14.7994    0.6335    0.4775 H   0  0
   14.8649   -0.7893    1.4952 H   0  0
   14.5407    1.1986    2.8826 H   0  0
   15.9931    1.9619    2.2175 H   0  0
   16.1413    0.5208    3.2343 H   0  0
   17.5212   -3.5011    0.5534 H   0  0
   16.1012   -4.9924    2.6309 H   0  0
   15.0232   -3.8559    3.5012 H   0  0
   16.2846   -1.9748    2.8839 H   0  0
   17.6047   -3.1299    2.9115 H   0  0
   15.4401   -2.3631   -1.6466 H   0  0
   13.2157   -3.3272   -2.1275 H   0  0
   13.0609   -5.0433    1.8454 H   0  0
   10.6593   -3.1582    0.3922 H   0  0
    8.3955   -3.9788   -0.0611 H   0  0
    8.0694   -6.1589   -1.2022 H   0  0
   10.0035   -7.5059   -1.8687 H   0  0
   14.4543   -6.0738   -1.0435 H   0  0
   21.3369   -3.2257   -2.1507 H   0  0
   22.3189   -1.8008   -2.4833 H   0  0
  1  2  2  0
  1 41  1  0
  2  3  1  0
  2 42  1  0
  3  4  2  0
  3 43  1  0
  4  5  1  0
  4 40  1  0
  5  6  2  0
  5 44  1  0
  6  1  1  0
  7  8  1  0
  7 38  2  0
  8  9  1  0
  8 39  1  0
  9 10  2  0
  9 45  1  0
 10 12  1  0
 10 46  1  0
 11  7  1  0
 11 12  2  0
 12 13  1  0
 13 14  2  0
 14 15  1  0
 14 16  1  0
 15 11  1  0
 16 17  1  0
 16 47  1  0
 16 48  1  0
 17 49  1  0
 17 50  1  0
 17 51  1  0
 18 15  1  0
 18 22  1  0
 18 52  1  0
 19 20  1  0
 19 53  1  0
 19 54  1  0
 20 18  1  0
 20 55  1  0
 20 56  1  0
 21 19  1  0
 21 22  2  0
 22 23  1  0
 23 24  2  0
 23 57  1  0
 24 25  1  0
 24 58  1  0
 25 26  2  0
 25 27  1  0
 26 21  1  0
 26 59  1  0
 27 28  2  0
 28 29  1  0
 28 60  1  0
 29 30  2  0
 29 61  1  0
 30 31  1  0
 30 62  1  0
 31 32  2  0
 31 63  1  0
 32 27  1  0
 32 33  1  0
 33 34  1  0
 34 35  1  0
 34 64  1  0
 35 36  2  0
 36 37  1  0
 37 33  2  0
 39  6  1  0
 39 65  1  0
 39 66  1  0
M  END
> <Name>
CHEMBL2322448

> <Clean Energy>
107.587997

> <chembl_id>
CHEMBL2322448

> <chembl_pref_name>
None

> <efficacy>
0.217391304

> <Forcefield>
MMFF

> <ForcefieldBase>
MMFF

> <ForcefieldFFML>
<?xml version="1.0" encoding="UTF-8"?>
<!DOCTYPE ffml SYSTEM "Ffml.dtd">
<ffml version="1.0">
<forcefield name="MMFF" derivedFrom="MMFF" base="MMFF">
<atomTypes>
<atomType
name="C100"
element="C"
mass="12.011"
annotation=""/>
<atomType
name="N101"
element="N"
mass="14.007"
annotation=""/>
<atomType
name="O102"
element="O"
mass="16"
annotation=""/>
<atomType
name="F103"
element="F"
mass="18.998"
annotation=""/>
<atomType
name="H104"
element="H"
mass="1.008"
annotation=""/>
</atomTypes>
<parameters>
</parameters>
</forcefield>
</ffml>

> <Initial Potential Energy>
237.49031

> <Initial RMS Gradient>
36.12753

> <Minimization Criteria>
STEEPD> Minimization exiting with gradient tolerance ( 3.0000000) satisfied.

> <CHARMm Energy>
64.90637

> <Potential Energy>
64.90637

> <RMS Gradient>
0.09139

> <Bond Energy>
10.40224

> <Angle Energy>
21.9655

> <STRBend>
-0.69794

> <Dihedral Energy>
3.89064

> <OOPLane>
0.09774

> <Van der Waals Energy>
70.8024

> <Electrostatic Energy>
-41.55421

> <Hydrogen Bond Energy>
0

> <Solvation Free Energy>
0

> <HasGasteigerCharges>
true

> <REMARK99>
REMARK  99  MacroMolecule created from Mol2 file
REMARK  99  CHEMBL2322448
REMARK  99  PROTEIN
REMARK  99  GASTEIGER
REMARK  99
REMARK  99

$$$$
CHEMBL601678
  SciTegic05292516403D

 73 77  0  0  0  0            999 V2000
   11.0231    1.6374    1.6303 C   0  0
   12.1434    1.0821    1.0011 C   0  0
   12.1053    3.7906    1.8865 C   0  0
   11.0004    2.9598    2.0887 C   0  0
   13.2059    3.2816    1.1802 C   0  0
   13.2162    1.9525    0.7689 C   0  0
   14.4210    1.8105    0.1100 N   0  0
   15.0016    3.0644    0.0239 C   0  0
   14.3311    3.9303    0.7593 N   0  0
   14.8909    0.5558   -0.4725 C   0  0
   16.3590    0.3045   -0.2500 C   0  0
   16.2155    3.3956   -0.7919 C   0  0
   16.2491    4.8700   -1.2038 C   0  0
   17.4691    5.1824   -2.0558 C   0  0
   17.1783    0.0304   -1.3500 C   0  0
   18.5591   -0.0341   -1.1941 C   0  0
   19.1525    0.1689    0.0591 C   0  0
   18.3204    0.3366    1.1753 C   0  0
   16.9347    0.3936    1.0256 C   0  0
   20.6113    0.2697    0.1900 C   0  0
   21.3305   -0.7680    0.8023 C   0  0
   22.7148   -0.6780    0.9687 C   0  0
   23.4066    0.4474    0.5226 C   0  0
   22.7196    1.4915   -0.0902 C   0  0
   21.3316    1.4023   -0.2480 C   0  0
   20.6299    2.5590   -0.8416 C   0  0
   20.5468    3.5845    0.0352 O   0  0
   20.1145    2.5633   -1.9440 O   0  0
    9.7728    0.8517    1.6375 C   0  0
    8.8289    1.3735    0.7898 N   0  0
    9.6507   -0.1653    2.3025 O   0  0
    7.5070    0.8034    0.6119 C   0  0  1  0  0  0
    6.6005    1.9002    0.0752 C   0  0
    7.5594   -0.4598   -0.2708 C   0  0
    6.2134   -1.1652   -0.3778 C   0  0
    5.6792    2.5204    0.9324 C   0  0
    4.8843    3.5732    0.4782 C   0  0
    4.9997    4.0206   -0.8362 C   0  0
    5.9116    3.4188   -1.6990 C   0  0
    6.7127    2.3699   -1.2452 C   0  0
   12.1332    0.0592    0.6412 H   0  0
   12.1009    4.8265    2.2072 H   0  0
   10.1097    3.3589    2.5700 H   0  0
   14.3290   -0.2734   -0.0311 H   0  0
   14.6416    0.6086   -1.5387 H   0  0
   17.1143    3.1642   -0.2100 H   0  0
   16.2289    2.7857   -1.7018 H   0  0
   15.3424    5.1226   -1.7671 H   0  0
   16.2619    5.5123   -0.3148 H   0  0
   17.4648    6.2361   -2.3515 H   0  0
   17.4802    4.5739   -2.9657 H   0  0
   18.3928    4.9902   -1.5015 H   0  0
   16.7559   -0.0641   -2.3484 H   0  0
   19.1766   -0.1782   -2.0776 H   0  0
   18.7552    0.4786    2.1634 H   0  0
   16.3130    0.5834    1.8995 H   0  0
   20.8106   -1.6577    1.1556 H   0  0
   23.2521   -1.4927    1.4476 H   0  0
   24.4831    0.5094    0.6523 H   0  0
   23.2630    2.3639   -0.4459 H   0  0
   21.1071    3.4687    0.8290 H   0  0
    9.0835    2.1905    0.2444 H   0  0
    7.1554    0.4963    1.6059 H   0  0
    7.9286   -0.2261   -1.2763 H   0  0
    8.2805   -1.1699    0.1530 H   0  0
    6.3190   -2.0890   -0.9556 H   0  0
    5.4697   -0.5408   -0.8818 H   0  0
    5.8295   -1.4287    0.6129 H   0  0
    5.5794    2.1912    1.9650 H   0  0
    4.1710    4.0455    1.1502 H   0  0
    4.3740    4.8386   -1.1865 H   0  0
    5.9999    3.7700   -2.7238 H   0  0
    7.4375    1.9307   -1.9275 H   0  0
  1  2  2  0
  1 29  1  0
  2  6  1  0
  2 41  1  0
  3  4  2  0
  3 42  1  0
  4  1  1  0
  4 43  1  0
  5  3  1  0
  5  6  2  0
  6  7  1  0
  7  8  1  0
  7 10  1  0
  8  9  2  0
  8 12  1  0
  9  5  1  0
 10 11  1  0
 10 44  1  0
 10 45  1  0
 11 15  2  0
 12 13  1  0
 12 46  1  0
 12 47  1  0
 13 14  1  0
 13 48  1  0
 13 49  1  0
 14 50  1  0
 14 51  1  0
 14 52  1  0
 15 16  1  0
 15 53  1  0
 16 17  2  0
 16 54  1  0
 17 18  1  0
 17 20  1  0
 18 19  2  0
 18 55  1  0
 19 11  1  0
 19 56  1  0
 20 21  2  0
 21 22  1  0
 21 57  1  0
 22 23  2  0
 22 58  1  0
 23 24  1  0
 23 59  1  0
 24 25  2  0
 24 60  1  0
 25 20  1  0
 25 26  1  0
 26 27  1  0
 26 28  2  0
 27 61  1  0
 29 30  1  0
 29 31  2  0
 30 32  1  0
 30 62  1  0
 32 33  1  0
 32 34  1  0
 32 63  1  0
 33 36  2  0
 34 35  1  0
 34 64  1  0
 34 65  1  0
 35 66  1  0
 35 67  1  0
 35 68  1  0
 36 37  1  0
 36 69  1  0
 37 38  2  0
 37 70  1  0
 38 39  1  0
 38 71  1  0
 39 40  2  0
 39 72  1  0
 40 33  1  0
 40 73  1  0
M  END
> <Name>
CHEMBL601678

> <Clean Energy>
67.4356

> <chembl_id>
CHEMBL601678

> <chembl_pref_name>
None

> <efficacy>
0.34

> <Forcefield>
MMFF

> <ForcefieldBase>
MMFF

> <ForcefieldFFML>
<?xml version="1.0" encoding="UTF-8"?>
<!DOCTYPE ffml SYSTEM "Ffml.dtd">
<ffml version="1.0">
<forcefield name="MMFF" derivedFrom="MMFF" base="MMFF">
<atomTypes>
<atomType
name="C100"
element="C"
mass="12.011"
annotation=""/>
<atomType
name="N101"
element="N"
mass="14.007"
annotation=""/>
<atomType
name="O102"
element="O"
mass="16"
annotation=""/>
<atomType
name="H103"
element="H"
mass="1.008"
annotation=""/>
</atomTypes>
<parameters>
</parameters>
</forcefield>
</ffml>

> <Initial Potential Energy>
267.2916

> <Initial RMS Gradient>
33.616

> <Minimization Criteria>
CONJUG> Minimization exiting with gradient tolerance ( 0.0100000) satisfied.

> <CHARMm Energy>
78.23364

> <Potential Energy>
78.23364

> <RMS Gradient>
0.00983

> <Bond Energy>
8.41188

> <Angle Energy>
9.09807

> <STRBend>
-0.04794

> <Dihedral Energy>
17.09132

> <OOPLane>
0.44123

> <Van der Waals Energy>
75.65832

> <Electrostatic Energy>
-32.41923

> <Hydrogen Bond Energy>
0

> <Solvation Free Energy>
0

> <HasGasteigerCharges>
true

> <REMARK99>
REMARK  99  MacroMolecule created from Mol2 file
REMARK  99  CHEMBL601678
REMARK  99  PROTEIN
REMARK  99  GASTEIGER
REMARK  99
REMARK  99

$$$$
CHEMBL373318
  SciTegic05292516403D

 51 51  0  0  0  0            999 V2000
    9.1699    0.0880    0.5426 C   0  0
    9.2807   -1.1869   -0.0184 C   0  0
   11.4131    2.5046   -1.3592 C   0  0
   12.4661    3.0591   -1.5193 C   0  0
    8.3547   -2.1621    0.1264 N   0  0
   16.7559    3.5914    0.8820 C   0  0
   10.2528    1.1193    0.3331 C   0  0  1  0  0  0
   16.3375    2.8696    1.7770 O   0  0
   10.4226   -1.4430   -0.7558 O   0  0
   17.9679    4.2197    0.8683 O   0  0
   10.1688    1.7693   -1.0626 C   0  0
    8.0183    0.3539    1.2931 C   0  0
   10.1540    2.1379    1.3424 O   0  0
   13.7961    3.6778   -1.6079 C   0  0
    7.2699   -1.8659    0.8714 C   0  0
   16.0040    3.9309   -0.3844 C   0  0
   10.5149   -2.7617   -1.2998 C   0  0
   18.7662    3.9974    2.0338 C   0  0
   14.6035    3.3272   -0.3595 C   0  0
    7.0582   -0.6357    1.4672 C   0  0
   11.1374   -3.7216   -0.2864 C   0  0
   11.9418   -6.0744    0.1420 C   0  0
   11.3131   -5.1208   -0.8736 C   0  0
   12.1200   -7.4682   -0.4384 C   0  0
   11.2274    0.6381    0.4875 H   0  0
    9.3210    2.4640   -1.1041 H   0  0
   10.0139    1.0155   -1.8427 H   0  0
    7.8757    1.3282    1.7553 H   0  0
   10.9362    2.7071    1.2313 H   0  0
   14.3146    3.3198   -2.5044 H   0  0
   13.6961    4.7652   -1.6987 H   0  0
    6.5549   -2.6728    0.9853 H   0  0
   15.9361    5.0214   -0.4647 H   0  0
   16.5678    3.5397   -1.2380 H   0  0
    9.5566   -3.1240   -1.6920 H   0  0
   11.1810   -2.6854   -2.1676 H   0  0
   19.7014    4.5512    1.9150 H   0  0
   19.0014    2.9336    2.1368 H   0  0
   18.2515    4.3691    2.9251 H   0  0
   14.6775    2.2355   -0.2613 H   0  0
   14.0690    3.6765    0.5347 H   0  0
    6.1672   -0.4528    2.0579 H   0  0
   12.1062   -3.3222    0.0390 H   0  0
   10.5172   -3.7713    0.6162 H   0  0
   12.9179   -5.6895    0.4597 H   0  0
   11.3105   -6.1353    1.0362 H   0  0
   11.9457   -5.0676   -1.7680 H   0  0
   10.3381   -5.5111   -1.1898 H   0  0
   12.5712   -8.1332    0.3046 H   0  0
   12.7733   -7.4469   -1.3165 H   0  0
   11.1571   -7.8951   -0.7363 H   0  0
  2  1  1  0
  3 11  1  0
  4  3  3  0
  5  2  2  0
  5 15  1  0
  6 16  1  0
  7  1  1  0
  7 25  1  0
  8  6  2  0
  9  2  1  0
 10  6  1  0
 11  7  1  0
 11 26  1  0
 11 27  1  0
 12  1  2  0
 12 28  1  0
 13  7  1  0
 13 29  1  0
 14  4  1  0
 14 30  1  0
 14 31  1  0
 15 20  2  0
 15 32  1  0
 16 19  1  0
 16 33  1  0
 16 34  1  0
 17  9  1  0
 17 35  1  0
 17 36  1  0
 18 10  1  0
 18 37  1  0
 18 38  1  0
 18 39  1  0
 19 14  1  0
 19 40  1  0
 19 41  1  0
 20 12  1  0
 20 42  1  0
 21 17  1  0
 21 43  1  0
 21 44  1  0
 22 23  1  0
 22 45  1  0
 22 46  1  0
 23 21  1  0
 23 47  1  0
 23 48  1  0
 24 22  1  0
 24 49  1  0
 24 50  1  0
 24 51  1  0
M  END
> <Name>
CHEMBL373318

> <Clean Energy>
110.653

> <chembl_id>
CHEMBL373318

> <chembl_pref_name>
None

> <efficacy>
0.45

> <Forcefield>
MMFF

> <ForcefieldBase>
MMFF

> <ForcefieldFFML>
<?xml version="1.0" encoding="UTF-8"?>
<!DOCTYPE ffml SYSTEM "Ffml.dtd">
<ffml version="1.0">
<forcefield name="MMFF" derivedFrom="MMFF" base="MMFF">
<atomTypes>
<atomType
name="C100"
element="C"
mass="12.011"
annotation=""/>
<atomType
name="N101"
element="N"
mass="14.007"
annotation=""/>
<atomType
name="O102"
element="O"
mass="16"
annotation=""/>
<atomType
name="H103"
element="H"
mass="1.008"
annotation=""/>
</atomTypes>
<parameters>
</parameters>
</forcefield>
</ffml>

> <Initial Potential Energy>
231.70262

> <Initial RMS Gradient>
28.70561

> <Minimization Criteria>
CONJUG> Minimization exiting with gradient tolerance ( 0.0100000) satisfied.

> <CHARMm Energy>
2.36118

> <Potential Energy>
2.36118

> <RMS Gradient>
0.00903

> <Bond Energy>
2.60161

> <Angle Energy>
8.07804

> <STRBend>
0.76009

> <Dihedral Energy>
-11.01475

> <OOPLane>
0.00169

> <Van der Waals Energy>
37.39744

> <Electrostatic Energy>
-35.46294

> <Hydrogen Bond Energy>
0

> <Solvation Free Energy>
0

> <HasGasteigerCharges>
true

> <REMARK99>
REMARK  99  MacroMolecule created from Mol2 file
REMARK  99  CHEMBL373318
REMARK  99  PROTEIN
REMARK  99  GASTEIGER
REMARK  99
REMARK  99

$$$$
CHEMBL3262946
  SciTegic05292516403D

 48 49  0  0  0  0            999 V2000
    7.5076   -7.4679   -0.3330 C   0  0
    7.3529   -8.7884    0.0757 C   0  0
    8.4720   -9.6200    0.2229 C   0  0
    9.7668   -9.1492   -0.0310 C   0  0
    9.9055   -7.7988   -0.4117 C   0  0
    8.7839   -6.9700   -0.5774 C   0  0
   11.2235   -7.1499   -0.5998 C   0  0
   12.0635   -7.2154    0.4924 N   0  0
   11.4888   -6.5648   -1.6410 O   0  0
   13.3217   -6.4987    0.5300 C   0  0
   14.4845   -7.3922    0.1224 C   0  0
   15.7999   -6.6161    0.0693 C   0  0
   16.9632   -7.5303   -0.2381 C   0  0
   18.1250   -6.8553   -0.3925 O   0  0
   16.8841   -8.7461   -0.3250 O   0  0
   10.9119   -9.9924    0.0194 N   0  0
   10.9674  -11.3044    0.4642 C   0  0
   12.2617  -12.0265    0.2620 C   0  0
   10.0499  -11.9170    0.9996 O   0  0
   12.2296  -13.4264    0.1896 C   0  0
   13.4076  -14.1559    0.0002 C   0  0
   14.6462  -13.5042   -0.1096 C   0  0
   14.6724  -12.1054   -0.0324 C   0  0
   13.4935  -11.3729    0.1599 C   0  0
   15.8814  -14.3500   -0.3281 C   0  0
   17.2278  -13.6491   -0.1974 C   0  0
    6.6380   -6.8275   -0.4570 H   0  0
    6.3573   -9.1854    0.2682 H   0  0
    8.2854  -10.6496    0.5130 H   0  0
    8.9083   -5.9329   -0.8851 H   0  0
   11.7386   -7.6806    1.3338 H   0  0
   13.2604   -5.6219   -0.1241 H   0  0
   13.4573   -6.1434    1.5569 H   0  0
   14.5681   -8.2201    0.8377 H   0  0
   14.2859   -7.8484   -0.8561 H   0  0
   15.7423   -5.8493   -0.7108 H   0  0
   15.9910   -6.1355    1.0347 H   0  0
   18.0311   -5.8864   -0.3079 H   0  0
   11.7569   -9.5929   -0.3698 H   0  0
   11.2832  -13.9602    0.2759 H   0  0
   13.3519  -15.2435   -0.0592 H   0  0
   15.6085  -11.5544   -0.1142 H   0  0
   13.5799  -10.2963    0.2461 H   0  0
   15.8639  -15.1738    0.3967 H   0  0
   15.8168  -14.7949   -1.3287 H   0  0
   18.0408  -14.3718   -0.3224 H   0  0
   17.3408  -13.1832    0.7868 H   0  0
   17.3524  -12.8763   -0.9627 H   0  0
  1  2  2  0
  1 27  1  0
  2  3  1  0
  2 28  1  0
  3  4  2  0
  3 29  1  0
  4  5  1  0
  4 16  1  0
  5  6  2  0
  5  7  1  0
  6  1  1  0
  6 30  1  0
  7  8  1  0
  7  9  2  0
  8 10  1  0
  8 31  1  0
 10 11  1  0
 10 32  1  0
 10 33  1  0
 11 12  1  0
 11 34  1  0
 11 35  1  0
 12 13  1  0
 12 36  1  0
 12 37  1  0
 13 14  1  0
 13 15  2  0
 14 38  1  0
 16 17  1  0
 16 39  1  0
 17 18  1  0
 17 19  2  0
 18 20  2  0
 20 21  1  0
 20 40  1  0
 21 22  2  0
 21 41  1  0
 22 23  1  0
 22 25  1  0
 23 24  2  0
 23 42  1  0
 24 18  1  0
 24 43  1  0
 25 26  1  0
 25 44  1  0
 25 45  1  0
 26 46  1  0
 26 47  1  0
 26 48  1  0
M  END
> <Name>
CHEMBL3262946

> <Clean Energy>
-2.18281

> <chembl_id>
CHEMBL3262946

> <chembl_pref_name>
None

> <efficacy>
0.37037037

> <Forcefield>
MMFF

> <ForcefieldBase>
MMFF

> <ForcefieldFFML>
<?xml version="1.0" encoding="UTF-8"?>
<!DOCTYPE ffml SYSTEM "Ffml.dtd">
<ffml version="1.0">
<forcefield name="MMFF" derivedFrom="MMFF" base="MMFF">
<atomTypes>
<atomType
name="C100"
element="C"
mass="12.011"
annotation=""/>
<atomType
name="N101"
element="N"
mass="14.007"
annotation=""/>
<atomType
name="O102"
element="O"
mass="16"
annotation=""/>
<atomType
name="H103"
element="H"
mass="1.008"
annotation=""/>
</atomTypes>
<parameters>
</parameters>
</forcefield>
</ffml>

> <Initial Potential Energy>
199.30093

> <Initial RMS Gradient>
100.30488

> <Minimization Criteria>
STEEPD> Minimization exiting with gradient tolerance ( 3.0000000) satisfied.

> <CHARMm Energy>
13.80966

> <Potential Energy>
13.80966

> <RMS Gradient>
0.07738

> <Bond Energy>
5.16175

> <Angle Energy>
9.08272

> <STRBend>
1.30637

> <Dihedral Energy>
-2.48998

> <OOPLane>
0.14319

> <Van der Waals Energy>
49.10725

> <Electrostatic Energy>
-48.50164

> <Hydrogen Bond Energy>
0

> <Solvation Free Energy>
0

> <HasGasteigerCharges>
true

> <REMARK99>
REMARK  99  MacroMolecule created from Mol2 file
REMARK  99  CHEMBL3262946
REMARK  99  PROTEIN
REMARK  99  GASTEIGER
REMARK  99
REMARK  99

$$$$
CHEMBL514173
  SciTegic05292516403D

 60 64  0  0  0  0            999 V2000
    7.6035    8.9172    0.2119 C   0  0
    6.6269    9.9096    0.1864 C   0  0
    5.2837    9.5694    0.3308 C   0  0
    4.9159    8.2322    0.5011 C   0  0
    5.8855    7.2184    0.5311 C   0  0
    7.2335    7.5817    0.3840 C   0  0
    5.5239    5.8147    0.7148 C   0  0
    4.1925    5.5392    0.9079 O   0  0
    4.1447    4.1845    1.0782 C   0  0
    5.4297    3.6956    0.9711 C   0  0
    6.2959    4.7422    0.7346 N   0  0
    2.8210    3.5918    1.3303 C   0  0
    5.9288    2.3039    1.1206 C   0  0
    5.5651    1.3891   -0.0483 C   0  0
    6.0566    0.0801    0.2674 O   0  0
    5.9659   -0.8841   -0.6990 C   0  0
    5.1906   -0.8137   -1.8529 C   0  0
    5.2031   -1.8679   -2.7718 C   0  0
    5.9995   -2.9930   -2.5499 C   0  0
    6.7944   -3.0803   -1.4005 C   0  0
    6.7375   -2.0295   -0.4645 C   0  0
    7.7061   -4.2797   -1.1877 C   0  0
    9.1158   -3.8924   -0.8736 C   0  0
    9.8949   -4.4018    0.1609 N   0  0
   10.8897   -3.5064    0.4198 N   0  0
   10.9727   -2.6625   -0.5943 N   0  0
    9.9238   -2.9123   -1.4358 C   0  0
    9.7433   -2.1626   -2.6689 C   0  0
   10.4750   -1.0176   -2.7155 O   0  0
    9.0582   -2.5426   -3.6086 O   0  0
    9.8030   -5.6079    0.9071 C   0  0
   10.5288   -5.7258    2.1056 C   0  0
   10.4926   -6.9121    2.8403 C   0  0
    9.7388   -7.9894    2.3817 C   0  0
    9.0317   -7.8899    1.1847 C   0  0
    9.0644   -6.7045    0.4438 C   0  0
    8.6513    9.1831    0.0984 H   0  0
    6.9140   10.9488    0.0536 H   0  0
    4.5199   10.3419    0.3101 H   0  0
    3.8618    7.9853    0.6081 H   0  0
    8.0064    6.8139    0.4016 H   0  0
    2.2819    3.4526    0.3885 H   0  0
    2.2212    4.2385    1.9781 H   0  0
    2.9129    2.6174    1.8195 H   0  0
    7.0194    2.3122    1.2437 H   0  0
    5.5382    1.8761    2.0530 H   0  0
    4.4762    1.3533   -0.1716 H   0  0
    6.0281    1.7591   -0.9717 H   0  0
    4.5650    0.0445   -2.0718 H   0  0
    4.6046   -1.7966   -3.6776 H   0  0
    6.0174   -3.7847   -3.2973 H   0  0
    7.3301   -2.0758    0.4473 H   0  0
    7.2552   -4.8536   -0.3714 H   0  0
    7.7074   -4.9191   -2.0787 H   0  0
   10.9607   -0.8947   -1.8724 H   0  0
   11.1175   -4.8913    2.4866 H   0  0
   11.0621   -7.0061    3.7638 H   0  0
    9.7211   -8.9182    2.9491 H   0  0
    8.4739   -8.7505    0.8191 H   0  0
    8.5449   -6.6906   -0.5084 H   0  0
  1  2  2  0
  1 37  1  0
  2  3  1  0
  2 38  1  0
  3  4  2  0
  3 39  1  0
  4  5  1  0
  4 40  1  0
  5  6  2  0
  5  7  1  0
  6  1  1  0
  6 41  1  0
  7  8  1  0
  8  9  1  0
  9 10  2  0
  9 12  1  0
 10 11  1  0
 10 13  1  0
 11  7  2  0
 12 42  1  0
 12 43  1  0
 12 44  1  0
 13 14  1  0
 13 45  1  0
 13 46  1  0
 14 15  1  0
 14 47  1  0
 14 48  1  0
 15 16  1  0
 16 17  2  0
 17 18  1  0
 17 49  1  0
 18 19  2  0
 18 50  1  0
 19 20  1  0
 19 51  1  0
 20 21  2  0
 20 22  1  0
 21 16  1  0
 21 52  1  0
 22 23  1  0
 22 53  1  0
 22 54  1  0
 23 24  1  0
 24 25  1  0
 24 31  1  0
 25 26  2  0
 26 27  1  0
 27 23  2  0
 27 28  1  0
 28 29  1  0
 28 30  2  0
 29 55  1  0
 31 32  2  0
 32 33  1  0
 32 56  1  0
 33 34  2  0
 33 57  1  0
 34 35  1  0
 34 58  1  0
 35 36  2  0
 35 59  1  0
 36 31  1  0
 36 60  1  0
M  END
> <Name>
CHEMBL514173

> <Clean Energy>
73.021202

> <chembl_id>
CHEMBL514173

> <chembl_pref_name>
None

> <efficacy>
0.19

> <Forcefield>
MMFF

> <ForcefieldBase>
MMFF

> <ForcefieldFFML>
<?xml version="1.0" encoding="UTF-8"?>
<!DOCTYPE ffml SYSTEM "Ffml.dtd">
<ffml version="1.0">
<forcefield name="MMFF" derivedFrom="MMFF" base="MMFF">
<atomTypes>
<atomType
name="C100"
element="C"
mass="12.011"
annotation=""/>
<atomType
name="O101"
element="O"
mass="16"
annotation=""/>
<atomType
name="N102"
element="N"
mass="14.007"
annotation=""/>
<atomType
name="H103"
element="H"
mass="1.008"
annotation=""/>
</atomTypes>
<parameters>
</parameters>
</forcefield>
</ffml>

> <Initial Potential Energy>
218.71601

> <Initial RMS Gradient>
34.19505

> <Minimization Criteria>
STEEPD> Minimization exiting with gradient tolerance ( 3.0000000) satisfied.

> <CHARMm Energy>
92.1936

> <Potential Energy>
92.1936

> <RMS Gradient>
0.02074

> <Bond Energy>
6.89352

> <Angle Energy>
13.44361

> <STRBend>
0.32551

> <Dihedral Energy>
7.18191

> <OOPLane>
0.19918

> <Van der Waals Energy>
60.88836

> <Electrostatic Energy>
3.26151

> <Hydrogen Bond Energy>
0

> <Solvation Free Energy>
0

> <HasGasteigerCharges>
true

> <REMARK99>
REMARK  99  MacroMolecule created from Mol2 file
REMARK  99  CHEMBL514173
REMARK  99  PROTEIN
REMARK  99  GASTEIGER
REMARK  99
REMARK  99

$$$$
CHEMBL459466
  SciTegic05292516403D

 61 64  0  0  0  0            999 V2000
   12.5491    0.7320   -0.6495 C   0  0
   12.3563   -0.5507   -1.1381 C   0  0
   13.3237   -1.5170   -0.8790 C   0  0
   13.6334    1.1665    0.0330 N   0  0
   14.5576    0.2014    0.2440 C   0  0
   14.4629   -1.1304   -0.1499 C   0  0
   15.6280   -1.8028    0.3232 C   0  0
   16.3578   -0.8811    1.0734 C   0  0
   15.7753    0.3630    0.8750 N   0  0
   17.5356   -1.1166    1.9588 C   0  0
   16.3219    1.6552    1.2901 C   0  0
   17.4552    2.1048    0.3844 C   0  0
   18.7931    1.7621    0.6577 C   0  0
   19.8252    2.0893   -0.2319 C   0  0
   19.5241    2.7782   -1.4104 C   0  0
   18.2078    3.1748   -1.6677 C   0  0
   17.1788    2.8316   -0.7825 C   0  0
   15.9303   -3.2177    0.1353 C   0  0
   15.0572   -4.0824    0.1539 O   0  0
   17.3334   -3.6311   -0.1066 C   0  0
   17.8010   -4.7914    0.5165 C   0  0
   19.1132   -5.2213    0.3085 C   0  0
   19.9607   -4.4992   -0.5322 C   0  0
   19.4851   -3.3457   -1.1644 C   0  0
   18.1744   -2.9090   -0.9592 C   0  0
   21.0575    1.5428    0.0322 O   0  0
   22.0792    2.4902    0.4177 C   0  0  2  0  0  0
   23.4370    1.9221   -0.0401 C   0  0
   22.0793    2.6364    1.9335 C   0  0
   23.3040    0.8431   -0.8548 O   0  0
   24.5338    2.3728    0.2706 O   0  0
   21.2596   -4.8112   -0.8194 O   0  0
   21.7856   -5.9892   -0.2193 C   0  0
   11.5671    1.6479   -0.9706 O   0  0
   11.2468    2.4920    0.1322 C   0  0
   20.7216    3.0905   -2.6121 Cl  0  0
   11.4538   -0.8018   -1.6886 H   0  0
   13.1885   -2.5420   -1.2151 H   0  0
   17.5901   -0.3907    2.7742 H   0  0
   18.4665   -1.0778    1.3873 H   0  0
   17.4692   -2.1026    2.4308 H   0  0
   15.5158    2.3974    1.2882 H   0  0
   16.6567    1.5669    2.3288 H   0  0
   19.0416    1.2042    1.5567 H   0  0
   17.9645    3.7222   -2.5773 H   0  0
   16.1534    3.1154   -1.0244 H   0  0
   17.1467   -5.3594    1.1723 H   0  0
   19.4357   -6.1248    0.8141 H   0  0
   20.1444   -2.7922   -1.8300 H   0  0
   17.8217   -2.0186   -1.4735 H   0  0
   21.9446    3.4610   -0.0709 H   0  0
   22.8840    3.2972    2.2710 H   0  0
   22.2096    1.6629    2.4198 H   0  0
   21.1273    3.0453    2.2866 H   0  0
   22.3531    0.6317   -0.9790 H   0  0
   22.8214   -6.1002   -0.5542 H   0  0
   21.2340   -6.8779   -0.5434 H   0  0
   21.7959   -5.9048    0.8724 H   0  0
   10.3325    3.0385   -0.1176 H   0  0
   12.0418    3.2254    0.3032 H   0  0
   11.0563    1.9101    1.0411 H   0  0
  1  2  2  0
  1 34  1  0
  2  3  1  0
  2 37  1  0
  3  6  2  0
  3 38  1  0
  4  1  1  0
  5  4  2  0
  5  6  1  0
  6  7  1  0
  7  8  2  0
  7 18  1  0
  8  9  1  0
  8 10  1  0
  9  5  1  0
  9 11  1  0
 10 39  1  0
 10 40  1  0
 10 41  1  0
 11 12  1  0
 11 42  1  0
 11 43  1  0
 12 13  2  0
 13 14  1  0
 13 44  1  0
 14 15  2  0
 14 26  1  0
 15 16  1  0
 15 36  1  0
 16 17  2  0
 16 45  1  0
 17 12  1  0
 17 46  1  0
 18 19  2  0
 18 20  1  0
 20 21  2  0
 21 22  1  0
 21 47  1  0
 22 23  2  0
 22 48  1  0
 23 24  1  0
 23 32  1  0
 24 25  2  0
 24 49  1  0
 25 20  1  0
 25 50  1  0
 26 27  1  0
 27 28  1  0
 27 29  1  0
 27 51  1  0
 28 30  1  0
 28 31  2  0
 29 52  1  0
 29 53  1  0
 29 54  1  0
 30 55  1  0
 32 33  1  0
 33 56  1  0
 33 57  1  0
 33 58  1  0
 34 35  1  0
 35 59  1  0
 35 60  1  0
 35 61  1  0
M  END
> <Name>
CHEMBL459466

> <Clean Energy>
107.033997

> <chembl_id>
CHEMBL459466

> <chembl_pref_name>
None

> <efficacy>
0.25

> <Forcefield>
MMFF

> <ForcefieldBase>
MMFF

> <ForcefieldFFML>
<?xml version="1.0" encoding="UTF-8"?>
<!DOCTYPE ffml SYSTEM "Ffml.dtd">
<ffml version="1.0">
<forcefield name="MMFF" derivedFrom="MMFF" base="MMFF">
<atomTypes>
<atomType
name="C100"
element="C"
mass="12.011"
annotation=""/>
<atomType
name="N101"
element="N"
mass="14.007"
annotation=""/>
<atomType
name="O102"
element="O"
mass="16"
annotation=""/>
<atomType
name="Cl103"
element="Cl"
mass="35.453"
annotation=""/>
<atomType
name="H104"
element="H"
mass="1.008"
annotation=""/>
</atomTypes>
<parameters>
</parameters>
</forcefield>
</ffml>

> <Initial Potential Energy>
1014.02725

> <Initial RMS Gradient>
460.54209

> <Minimization Criteria>
STEEPD> Minimization exiting with gradient tolerance ( 3.0000000) satisfied.

> <CHARMm Energy>
120.89336

> <Potential Energy>
120.89336

> <RMS Gradient>
0.01413

> <Bond Energy>
6.87168

> <Angle Energy>
17.97724

> <STRBend>
1.46847

> <Dihedral Energy>
20.06428

> <OOPLane>
0.31896

> <Van der Waals Energy>
67.14593

> <Electrostatic Energy>
7.0468

> <Hydrogen Bond Energy>
0

> <Solvation Free Energy>
0

> <HasGasteigerCharges>
true

> <REMARK99>
REMARK  99  MacroMolecule created from Mol2 file
REMARK  99  CHEMBL459466
REMARK  99  PROTEIN
REMARK  99  GASTEIGER
REMARK  99
REMARK  99

$$$$
CHEMBL3397556
  SciTegic05292516403D

 47 48  0  0  0  0            999 V2000
    1.4850   -3.3633    1.5898 C   0  0
    2.0182   -3.2597    0.1349 C   0  0  1  0  0  0
    2.5052   -1.8217   -0.1192 C   0  0
    2.2555   -2.9697    2.5133 O   0  0
    0.3067   -3.8240    1.6900 O   0  5
    1.4265   -0.7967   -0.3962 C   0  0
    0.6925   -0.2387    0.6591 C   0  0
   -0.2792    0.7314    0.4119 C   0  0
   -0.5265    1.1521   -0.8934 C   0  0
    0.1934    0.6037   -1.9533 C   0  0
    1.1624   -0.3708   -1.7062 C   0  0
    3.1871   -4.1013   -0.0536 O   0  0
    3.0599   -5.4592   -0.0618 C   0  0
    4.2796   -6.1382   -0.1488 C   0  0
    4.3268   -7.5334   -0.1538 C   0  0
    3.1413   -8.2664   -0.0721 C   0  0
    1.9166   -7.5998    0.0051 C   0  0
    1.8784   -6.1955    0.0071 C   0  0
    3.2356   -9.7393   -0.0576 C   0  0
    2.2073  -10.5259    0.0130 N   0  0
    2.6530  -11.8568    0.0120 O   0  0
    1.5163  -12.7099    0.1550 C   0  0
    1.9749  -14.1726    0.1528 C   0  0
    0.7956  -15.1017    0.4325 C   0  0
    2.6432  -14.5450   -1.1724 C   0  0
    1.2533   -3.5257   -0.6050 H   0  0
    3.1317   -1.4588    0.7067 H   0  0
    3.1936   -1.8333   -0.9767 H   0  0
    0.8743   -0.5741    1.6808 H   0  0
   -0.8439    1.1523    1.2397 H   0  0
   -1.2842    1.9062   -1.0831 H   0  0
   -0.0035    0.9354   -2.9691 H   0  0
    1.7143   -0.8044   -2.5365 H   0  0
    5.2017   -5.5639   -0.1938 H   0  0
    5.2914   -8.0283   -0.2077 H   0  0
    0.9868   -8.1575    0.0822 H   0  0
    0.9114   -5.7063    0.0893 H   0  0
    4.2548  -10.1634   -0.1092 H   0  0
    1.0153  -12.4742    1.1018 H   0  0
    0.8163  -12.5230   -0.6687 H   0  0
    2.7224  -14.3047    0.9456 H   0  0
    1.1218  -16.1468    0.4616 H   0  0
    0.0241  -15.0090   -0.3396 H   0  0
    0.3375  -14.8683    1.3994 H   0  0
    2.9658  -15.5916   -1.1630 H   0  0
    3.5290  -13.9283   -1.3560 H   0  0
    1.9560  -14.4106   -2.0147 H   0  0
  1  2  1  0
  1  4  2  0
  1  5  1  0
  2  3  1  0
  2 12  1  0
  2 26  1  0
  3  6  1  0
  3 27  1  0
  3 28  1  0
  6  7  1  0
  6 11  2  0
  7  8  2  0
  7 29  1  0
  8  9  1  0
  8 30  1  0
  9 10  2  0
  9 31  1  0
 10 11  1  0
 10 32  1  0
 11 33  1  0
 12 13  1  0
 13 14  1  0
 13 18  2  0
 14 15  2  0
 14 34  1  0
 15 16  1  0
 15 35  1  0
 16 17  2  0
 16 19  1  0
 17 18  1  0
 17 36  1  0
 18 37  1  0
 19 20  2  0
 19 38  1  0
 20 21  1  0
 21 22  1  0
 22 23  1  0
 22 39  1  0
 22 40  1  0
 23 24  1  0
 23 25  1  0
 23 41  1  0
 24 42  1  0
 24 43  1  0
 24 44  1  0
 25 45  1  0
 25 46  1  0
 25 47  1  0
M  CHG  1   5  -1
M  END
> <Name>
CHEMBL3397556

> <Clean Energy>
12.9202

> <chembl_id>
CHEMBL3397556

> <chembl_pref_name>
None

> <efficacy>
0.36

> <Forcefield>
MMFF

> <ForcefieldBase>
MMFF

> <ForcefieldFFML>
<?xml version="1.0" encoding="UTF-8"?>
<!DOCTYPE ffml SYSTEM "Ffml.dtd">
<ffml version="1.0">
<forcefield name="MMFF" derivedFrom="MMFF" base="MMFF">
<atomTypes>
<atomType
name="C100"
element="C"
mass="12.011"
annotation=""/>
<atomType
name="O101"
element="O"
mass="16"
annotation=""/>
<atomType
name="N102"
element="N"
mass="14.007"
annotation=""/>
<atomType
name="H103"
element="H"
mass="1.008"
annotation=""/>
</atomTypes>
<parameters>
</parameters>
</forcefield>
</ffml>

> <Initial Potential Energy>
174.37163

> <Initial RMS Gradient>
30.33394

> <Minimization Criteria>
CONJUG> Minimization exiting with gradient tolerance ( 0.0100000) satisfied.

> <CHARMm Energy>
112.51521

> <Potential Energy>
112.51521

> <RMS Gradient>
0.00931

> <Bond Energy>
4.83882

> <Angle Energy>
14.3926

> <STRBend>
0.73253

> <Dihedral Energy>
0.3129

> <OOPLane>
0.01656

> <Van der Waals Energy>
44.94527

> <Electrostatic Energy>
47.27654

> <Hydrogen Bond Energy>
0

> <Solvation Free Energy>
0

> <HasGasteigerCharges>
true

> <REMARK99>
REMARK  99  MacroMolecule created from Mol2 file
REMARK  99  CHEMBL3397556
REMARK  99  PROTEIN
REMARK  99  GASTEIGER
REMARK  99
REMARK  99

$$$$
CHEMBL491950
  SciTegic05292516403D

 44 45  0  0  0  0            999 V2000
    6.3153   -0.4839    0.0688 C   0  0
    5.9953   -1.8016   -0.2850 C   0  0
    6.9828   -2.7114   -0.6424 C   0  0
    8.3159   -2.3103   -0.6523 C   0  0
    8.6823   -1.0016   -0.3008 C   0  0
    7.6703   -0.0847    0.0922 C   0  0
    8.0515    1.3201    0.4996 C   0  0
    5.1896    0.4498    0.4342 C   0  0
   10.0264   -0.5876   -0.3053 N   0  0
   11.2424   -1.1996   -0.0167 C   0  0
   11.3529   -2.4197    0.5998 C   0  0
   12.6340   -2.8459    0.8378 C   0  0
   13.7459   -2.1679    0.5267 N   0  0
   13.5393   -0.9885   -0.0530 C   0  0
   12.3318   -0.4780   -0.3373 N   0  0
   12.9270   -4.3545    1.6026 Cl  0  0
   14.9301    0.0195   -0.5075 S   0  0
   16.3208   -0.8968    0.2971 C   0  0  2  0  0  0
   17.4868    0.0591    0.5497 C   0  0
   16.7768   -2.0526   -0.6066 C   0  0
   17.6112   -3.0895    0.1538 C   0  0
   17.9841   -4.2626   -0.7402 C   0  0
   18.3636   -0.1500    1.3796 O   0  0
   17.5413    1.1459   -0.2582 O   0  0
    4.9564   -2.1287   -0.2938 H   0  0
    6.6970   -3.7226   -0.9289 H   0  0
    9.0649   -3.0230   -0.9850 H   0  0
    7.2884    1.7926    1.1243 H   0  0
    8.2030    1.9367   -0.3918 H   0  0
    8.9669    1.3226    1.1009 H   0  0
    5.2688    1.3843   -0.1307 H   0  0
    5.2104    0.6637    1.5073 H   0  0
    4.2127    0.0148    0.1971 H   0  0
   10.1800    0.3511   -0.6576 H   0  0
   10.4981   -3.0004    0.9118 H   0  0
   15.9834   -1.2419    1.2804 H   0  0
   15.9132   -2.5727   -1.0388 H   0  0
   17.3672   -1.6664   -1.4482 H   0  0
   18.5298   -2.6340    0.5380 H   0  0
   17.0456   -3.4623    1.0155 H   0  0
   18.5786   -4.9916   -0.1808 H   0  0
   18.5750   -3.9288   -1.5991 H   0  0
   17.0894   -4.7702   -1.1147 H   0  0
   16.7369    1.2035   -0.8183 H   0  0
  1  2  2  0
  1  8  1  0
  2  3  1  0
  2 25  1  0
  3  4  2  0
  3 26  1  0
  4  5  1  0
  4 27  1  0
  5  6  2  0
  5  9  1  0
  6  1  1  0
  6  7  1  0
  7 28  1  0
  7 29  1  0
  7 30  1  0
  8 31  1  0
  8 32  1  0
  8 33  1  0
  9 10  1  0
  9 34  1  0
 10 11  2  0
 11 12  1  0
 11 35  1  0
 12 13  2  0
 12 16  1  0
 13 14  1  0
 14 15  2  0
 14 17  1  0
 15 10  1  0
 17 18  1  0
 18 19  1  0
 18 20  1  0
 18 36  1  0
 19 23  2  0
 19 24  1  0
 20 21  1  0
 20 37  1  0
 20 38  1  0
 21 22  1  0
 21 39  1  0
 21 40  1  0
 22 41  1  0
 22 42  1  0
 22 43  1  0
 24 44  1  0
M  END
> <Name>
CHEMBL491950

> <Clean Energy>
8.79693

> <chembl_id>
CHEMBL491950

> <chembl_pref_name>
None

> <efficacy>
0.25

> <Forcefield>
MMFF

> <ForcefieldBase>
MMFF

> <ForcefieldFFML>
<?xml version="1.0" encoding="UTF-8"?>
<!DOCTYPE ffml SYSTEM "Ffml.dtd">
<ffml version="1.0">
<forcefield name="MMFF" derivedFrom="MMFF" base="MMFF">
<atomTypes>
<atomType
name="C100"
element="C"
mass="12.011"
annotation=""/>
<atomType
name="N101"
element="N"
mass="14.007"
annotation=""/>
<atomType
name="Cl102"
element="Cl"
mass="35.453"
annotation=""/>
<atomType
name="S103"
element="S"
mass="32.066"
annotation=""/>
<atomType
name="O104"
element="O"
mass="16"
annotation=""/>
<atomType
name="H105"
element="H"
mass="1.008"
annotation=""/>
</atomTypes>
<parameters>
</parameters>
</forcefield>
</ffml>

> <Initial Potential Energy>
35.4614

> <Initial RMS Gradient>
36.78436

> <Minimization Criteria>
STEEPD> Minimization exiting with gradient tolerance ( 3.0000000) satisfied.

> <CHARMm Energy>
-84.4638

> <Potential Energy>
-84.4638

> <RMS Gradient>
0.03312

> <Bond Energy>
4.09266

> <Angle Energy>
12.3129

> <STRBend>
0.32551

> <Dihedral Energy>
3.49565

> <OOPLane>
0.14054

> <Van der Waals Energy>
45.47763

> <Electrostatic Energy>
-150.3087

> <Hydrogen Bond Energy>
0

> <Solvation Free Energy>
0

> <HasGasteigerCharges>
true

> <REMARK99>
REMARK  99  MacroMolecule created from Mol2 file
REMARK  99  CHEMBL491950
REMARK  99  PROTEIN
REMARK  99  GASTEIGER
REMARK  99
REMARK  99

$$$$
CHEMBL495990
  SciTegic05292516403D

 63 66  0  0  0  0            999 V2000
    5.2064   -2.8234   -0.0199 C   0  0
    5.6702   -4.0587    0.4375 C   0  0
    6.9804   -4.4789    0.1761 C   0  0
    7.8586   -3.6676   -0.5569 C   0  0
    7.3866   -2.4292   -1.0186 C   0  0
    6.0708   -2.0128   -0.7579 C   0  0
    9.2982   -4.0810   -0.7763 C   0  0
   10.0879   -3.7446    0.2839 F   0  0
    9.4660   -5.4226   -0.9488 F   0  0
    9.8795   -3.4944   -1.8624 F   0  0
    3.9139   -2.5334    0.3324 O   0  0
    3.3887   -1.2810   -0.1031 C   0  0
    1.9915   -1.0715    0.4542 C   0  0
    1.8076   -0.5158    1.7266 C   0  0
    0.5179   -0.2631    2.2138 C   0  0
   -0.6248   -0.5729    1.4556 C   0  0
   -0.4404   -1.1907    0.2109 C   0  0
    0.8550   -1.4149   -0.2917 C   0  0
   -2.1898   -0.2016    2.2309 S   0  0
   -3.1386    0.7374    1.0344 C   0  0
   -5.0460    2.1649   -0.4549 C   0  0
   -5.2568    0.8202   -0.1686 C   0  0
   -4.3218    0.1231    0.5928 C   0  0
   -6.0016    2.8769   -1.1438 O   0  0
   -7.1743    3.0617   -0.3280 C   0  0
   -7.9985    4.2109   -0.8721 C   0  0
   -7.5922    4.6625   -2.0841 O   0  0
   -8.9653    4.6896   -0.2935 O   0  0
   -1.4747   -1.5173   -0.6291 O   0  0
   -2.1893   -2.7044   -0.2360 C   0  0
   -1.4769   -3.9071   -0.7053 C   0  0
   -3.6402    4.2527   -0.4535 C   0  0
   -3.8567    2.8059   -0.0628 C   0  0
   -2.8785    2.0814    0.6745 C   0  0
   -1.6188    2.7788    1.1492 C   0  0
   -1.3177    4.0904    0.4280 C   0  0
   -2.5631    4.9551    0.3636 C   0  0
   -0.8614   -4.8658   -1.0838 C   0  0
    5.0018   -4.6944    1.0151 H   0  0
    7.3127   -5.4407    0.5627 H   0  0
    8.0509   -1.7713   -1.5796 H   0  0
    5.7617   -1.0448   -1.1393 H   0  0
    4.0225   -0.4541    0.2425 H   0  0
    3.3461   -1.2518   -1.1995 H   0  0
    2.6727   -0.2694    2.3439 H   0  0
    0.4025    0.2043    3.1903 H   0  0
    0.9665   -1.8592   -1.2792 H   0  0
   -6.1549    0.3119   -0.5047 H   0  0
   -4.5404   -0.9063    0.8696 H   0  0
   -7.7908    2.1575   -0.3633 H   0  0
   -6.8965    3.3152    0.7025 H   0  0
   -6.7983    4.1538   -2.3655 H   0  0
   -2.3548   -2.7528    0.8449 H   0  0
   -3.1745   -2.6536   -0.7117 H   0  0
   -3.3665    4.2774   -1.5158 H   0  0
   -4.5709    4.8207   -0.3384 H   0  0
   -1.7227    2.9759    2.2234 H   0  0
   -0.7486    2.1335    1.0041 H   0  0
   -0.5144    4.6217    0.9502 H   0  0
   -0.9583    3.8833   -0.5882 H   0  0
   -2.3300    5.9249   -0.0906 H   0  0
   -2.9298    5.1542    1.3787 H   0  0
   -0.2636   -5.6926   -1.4010 H   0  0
  1  2  2  0
  1 11  1  0
  2  3  1  0
  2 39  1  0
  3  4  2  0
  3 40  1  0
  4  5  1  0
  4  7  1  0
  5  6  2  0
  5 41  1  0
  6  1  1  0
  6 42  1  0
  7  8  1  0
  7  9  1  0
  7 10  1  0
 11 12  1  0
 12 13  1  0
 12 43  1  0
 12 44  1  0
 13 14  2  0
 14 15  1  0
 14 45  1  0
 15 16  2  0
 15 46  1  0
 16 17  1  0
 16 19  1  0
 17 18  2  0
 17 29  1  0
 18 13  1  0
 18 47  1  0
 19 20  1  0
 20 34  2  0
 21 22  1  0
 21 24  1  0
 22 23  2  0
 22 48  1  0
 23 20  1  0
 23 49  1  0
 24 25  1  0
 25 26  1  0
 25 50  1  0
 25 51  1  0
 26 27  1  0
 26 28  2  0
 27 52  1  0
 29 30  1  0
 30 31  1  0
 30 53  1  0
 30 54  1  0
 31 38  3  0
 32 33  1  0
 32 37  1  0
 32 55  1  0
 32 56  1  0
 33 21  2  0
 33 34  1  0
 34 35  1  0
 35 36  1  0
 35 57  1  0
 35 58  1  0
 36 37  1  0
 36 59  1  0
 36 60  1  0
 37 61  1  0
 37 62  1  0
 38 63  1  0
M  END
> <Name>
CHEMBL495990

> <Clean Energy>
189.718002

> <chembl_id>
CHEMBL495990

> <chembl_pref_name>
None

> <efficacy>
0.43

> <Forcefield>
MMFF

> <ForcefieldBase>
MMFF

> <ForcefieldFFML>
<?xml version="1.0" encoding="UTF-8"?>
<!DOCTYPE ffml SYSTEM "Ffml.dtd">
<ffml version="1.0">
<forcefield name="MMFF" derivedFrom="MMFF" base="MMFF">
<atomTypes>
<atomType
name="C100"
element="C"
mass="12.011"
annotation=""/>
<atomType
name="F101"
element="F"
mass="18.998"
annotation=""/>
<atomType
name="O102"
element="O"
mass="16"
annotation=""/>
<atomType
name="S103"
element="S"
mass="32.066"
annotation=""/>
<atomType
name="H104"
element="H"
mass="1.008"
annotation=""/>
</atomTypes>
<parameters>
</parameters>
</forcefield>
</ffml>

> <Initial Potential Energy>
874.4717

> <Initial RMS Gradient>
225.0064

> <Minimization Criteria>
STEEPD> Minimization exiting with gradient tolerance ( 3.0000000) satisfied.

> <CHARMm Energy>
114.74597

> <Potential Energy>
114.74597

> <RMS Gradient>
0.09773

> <Bond Energy>
8.57819

> <Angle Energy>
19.40998

> <STRBend>
0.77946

> <Dihedral Energy>
13.41669

> <OOPLane>
0.25898

> <Van der Waals Energy>
68.15025

> <Electrostatic Energy>
4.15242

> <Hydrogen Bond Energy>
0

> <Solvation Free Energy>
0

> <HasGasteigerCharges>
true

> <REMARK99>
REMARK  99  MacroMolecule created from Mol2 file
REMARK  99  CHEMBL495990
REMARK  99  PROTEIN
REMARK  99  GASTEIGER
REMARK  99
REMARK  99

$$$$
CHEMBL1081950
  SciTegic05292516403D

 64 67  0  0  0  0            999 V2000
    1.0995   -6.6242    0.3018 C   0  0
    2.1934   -6.3658    1.7321 S   0  0
    3.5624   -7.3449    1.2520 C   0  0
    3.5590   -9.0510    1.3141 S   0  0
    5.1734   -9.0736    0.7083 C   0  0
    5.5934   -7.7652    0.4984 C   0  0
    4.6740   -6.7847    0.8412 N   0  0
    6.8977   -7.3792   -0.0207 C   0  0
    7.4188   -7.9520   -1.1846 C   0  0
    8.6836   -7.5757   -1.6466 C   0  0
    9.4434   -6.6248   -0.9600 C   0  0
    8.9110   -6.0253    0.1812 C   0  0
    7.6422   -6.3969    0.6440 C   0  0
    5.8591  -10.3577    0.5429 C   0  0
    5.3140  -11.3646   -0.2629 C   0  0
    5.9783  -12.5834   -0.4199 C   0  0
    7.1970  -12.8183    0.2193 C   0  0
    7.7513  -11.8208    1.0194 C   0  0
    7.0850  -10.5984    1.1796 C   0  0
   10.6703   -6.3688   -1.5071 O   0  0
   11.5426   -5.5161   -0.7733 C   0  0
    7.7360  -14.0507   -0.0181 O   0  0
    8.9833  -14.3380    0.6027 C   0  0
   -4.7526   -4.3984   -0.9795 C   0  0
   -4.3702   -5.4942   -1.7534 C   0  0
   -3.0658   -5.9771   -1.6672 C   0  0
   -2.1443   -5.3719   -0.8103 C   0  0
   -2.5188   -4.2410   -0.0789 C   0  0
   -3.8254   -3.7331   -0.1671 C   0  0
   -4.2230   -2.5171    0.6199 C   0  0
   -6.0519   -3.9579   -1.0283 O   0  0
   -6.8650   -4.8033   -0.2185 C   0  0
   -8.2115   -4.1715    0.0960 C   0  0
   -8.9305   -4.9046    0.9895 O   0  0
   -8.6513   -3.1376   -0.3822 O   0  0
   -0.9109   -5.9624   -0.7897 O   0  0
   -0.0646   -5.6443    0.3212 C   0  0
    1.6650   -6.5011   -0.6289 H   0  0
    0.7227   -7.6530    0.3095 H   0  0
    6.8477   -8.6865   -1.7472 H   0  0
    9.0805   -8.0318   -2.5501 H   0  0
    9.4504   -5.2627    0.7319 H   0  0
    7.2330   -5.9137    1.5299 H   0  0
    4.3708  -11.2111   -0.7825 H   0  0
    5.5440  -13.3585   -1.0473 H   0  0
    8.6964  -11.9561    1.5335 H   0  0
    7.5388   -9.8368    1.8120 H   0  0
   12.4966   -5.4726   -1.3072 H   0  0
   11.7369   -5.9142    0.2284 H   0  0
   11.1416   -4.4986   -0.7221 H   0  0
    9.2727  -15.3538    0.3161 H   0  0
    8.8962  -14.3116    1.6939 H   0  0
    9.7644  -13.6564    0.2501 H   0  0
   -5.0809   -5.9721   -2.4208 H   0  0
   -2.7632   -6.8365   -2.2614 H   0  0
   -1.8010   -3.7333    0.5589 H   0  0
   -4.6993   -1.7792   -0.0339 H   0  0
   -3.3524   -2.0351    1.0764 H   0  0
   -4.9163   -2.7948    1.4201 H   0  0
   -7.0622   -5.7402   -0.7524 H   0  0
   -6.3734   -5.0089    0.7420 H   0  0
   -8.4543   -5.6893    1.3238 H   0  0
    0.3046   -4.6174    0.2138 H   0  0
   -0.6240   -5.7488    1.2597 H   0  0
  1  2  1  0
  1 38  1  0
  1 39  1  0
  2  3  1  0
  3  4  1  0
  4  5  1  0
  5  6  2  0
  5 14  1  0
  6  7  1  0
  6  8  1  0
  7  3  2  0
  8  9  2  0
  9 10  1  0
  9 40  1  0
 10 11  2  0
 10 41  1  0
 11 12  1  0
 11 20  1  0
 12 13  2  0
 12 42  1  0
 13  8  1  0
 13 43  1  0
 14 15  2  0
 15 16  1  0
 15 44  1  0
 16 17  2  0
 16 45  1  0
 17 18  1  0
 17 22  1  0
 18 19  2  0
 18 46  1  0
 19 14  1  0
 19 47  1  0
 20 21  1  0
 21 48  1  0
 21 49  1  0
 21 50  1  0
 22 23  1  0
 23 51  1  0
 23 52  1  0
 23 53  1  0
 24 25  2  0
 24 31  1  0
 25 26  1  0
 25 54  1  0
 26 27  2  0
 26 55  1  0
 27 28  1  0
 27 36  1  0
 28 29  2  0
 28 56  1  0
 29 24  1  0
 29 30  1  0
 30 57  1  0
 30 58  1  0
 30 59  1  0
 31 32  1  0
 32 33  1  0
 32 60  1  0
 32 61  1  0
 33 34  1  0
 33 35  2  0
 34 62  1  0
 36 37  1  0
 37  1  1  0
 37 63  1  0
 37 64  1  0
M  END
> <Name>
CHEMBL1081950

> <Clean Energy>
42.197102

> <chembl_id>
CHEMBL1081950

> <chembl_pref_name>
None

> <efficacy>
0.26

> <Forcefield>
MMFF

> <ForcefieldBase>
MMFF

> <ForcefieldFFML>
<?xml version="1.0" encoding="UTF-8"?>
<!DOCTYPE ffml SYSTEM "Ffml.dtd">
<ffml version="1.0">
<forcefield name="MMFF" derivedFrom="MMFF" base="MMFF">
<atomTypes>
<atomType
name="C100"
element="C"
mass="12.011"
annotation=""/>
<atomType
name="S101"
element="S"
mass="32.066"
annotation=""/>
<atomType
name="N102"
element="N"
mass="14.007"
annotation=""/>
<atomType
name="O103"
element="O"
mass="16"
annotation=""/>
<atomType
name="H104"
element="H"
mass="1.008"
annotation=""/>
</atomTypes>
<parameters>
</parameters>
</forcefield>
</ffml>

> <Initial Potential Energy>
1180.48758

> <Initial RMS Gradient>
735.27471

> <Minimization Criteria>
STEEPD> Minimization exiting with gradient tolerance ( 3.0000000) satisfied.

> <CHARMm Energy>
89.46437

> <Potential Energy>
89.46437

> <RMS Gradient>
0.16151

> <Bond Energy>
5.63797

> <Angle Energy>
24.81999

> <STRBend>
-0.17436

> <Dihedral Energy>
17.02247

> <OOPLane>
0.03208

> <Van der Waals Energy>
68.93503

> <Electrostatic Energy>
-26.8088

> <Hydrogen Bond Energy>
0

> <Solvation Free Energy>
0

> <HasGasteigerCharges>
true

> <REMARK99>
REMARK  99  MacroMolecule created from Mol2 file
REMARK  99  CHEMBL1081950
REMARK  99  PROTEIN
REMARK  99  GASTEIGER
REMARK  99
REMARK  99

$$$$
CHEMBL2322447
  SciTegic05292516403D

 70 76  0  0  0  0            999 V2000
   11.0038   -2.5415    1.5324 C   0  0
   11.6230   -3.0924    2.6530 C   0  0
   12.7020   -3.9503    2.4930 C   0  0
   13.1812   -4.2423    1.2152 C   0  0
   12.5868   -3.6792    0.0772 C   0  0
   11.4573   -2.8315    0.2292 C   0  0
    8.2970   -2.3014   -0.6209 C   0  0
    9.4885   -1.5327   -0.7262 N   0  0
    9.4896   -0.1365   -0.5668 C   0  0
    8.3620    0.5480   -0.2856 C   0  0
    7.1262   -1.5171   -0.2874 C   0  0
    7.1464   -0.1597   -0.1268 C   0  0
    5.9526    0.3485    0.2722 N   0  0
    5.1629   -0.7161    0.4025 C   0  0
    5.8262   -1.8808    0.0100 N   0  0
    3.7552   -0.6586    0.9334 C   0  0
    3.5077    0.5794    1.7849 C   0  0
    5.4253   -3.2822    0.0786 C   0  0  1  0  0  0
    4.7796   -5.1066    1.5859 C   0  0
    5.6875   -3.8823    1.4746 C   0  0
    3.6289   -4.7009    0.7135 C   0  0
    3.9857   -3.6563   -0.1536 C   0  0
    3.0948   -3.2172   -1.1181 C   0  0
    1.8163   -3.7909   -1.1598 C   0  0
    1.4384   -4.8225   -0.2709 C   0  0
    2.3687   -5.2821    0.6734 C   0  0
    0.0804   -5.3826   -0.3168 C   0  0
   -0.9447   -4.6103    0.2787 C   0  0
   -2.2680   -5.0443    0.3132 C   0  0
   -2.6030   -6.2673   -0.2457 C   0  0
   -1.6067   -7.0437   -0.8391 C   0  0
   -0.2562   -6.6295   -0.8944 C   0  0
    0.6735   -7.5533   -1.5662 C   0  0
    1.9781   -7.3247   -1.9195 N   0  0
    2.4867   -8.3889   -2.5566 N   0  0
    1.5098   -9.2781   -2.5807 N   0  0
    0.3858   -8.7812   -1.9775 N   0  0
    8.2821   -3.5204   -0.7670 O   0  0
   10.7573   -2.2414   -0.9932 C   0  0
   13.0345   -3.8976   -1.2032 O   0  0
   14.2253   -4.6669   -1.3877 C   0  0
   14.5353   -4.6908   -2.7060 F   0  0
   14.0576   -5.9446   -0.9813 F   0  0
   15.2776   -4.1244   -0.7331 F   0  0
   10.1552   -1.8826    1.6976 H   0  0
   11.2669   -2.8492    3.6516 H   0  0
   13.1823   -4.3888    3.3649 H   0  0
   14.0303   -4.9174    1.1561 H   0  0
   10.4453    0.3749   -0.6688 H   0  0
    8.3709    1.6246   -0.1533 H   0  0
    3.0542   -0.6520    0.0929 H   0  0
    3.5468   -1.5369    1.5517 H   0  0
    2.4840    0.5726    2.1728 H   0  0
    3.6405    1.4970    1.2019 H   0  0
    4.1947    0.6173    2.6372 H   0  0
    5.9848   -3.8298   -0.6871 H   0  0
    5.2634   -5.9992    1.1760 H   0  0
    4.4755   -5.2870    2.6207 H   0  0
    5.4182   -3.1623    2.2605 H   0  0
    6.7412   -4.1377    1.6299 H   0  0
    3.3499   -2.4319   -1.8251 H   0  0
    1.1041   -3.4247   -1.8987 H   0  0
    2.1168   -6.0824    1.3655 H   0  0
   -0.7038   -3.6495    0.7335 H   0  0
   -3.0301   -4.4267    0.7803 H   0  0
   -3.6303   -6.6202   -0.2247 H   0  0
   -1.8898   -7.9992   -1.2766 H   0  0
    2.5651   -6.5126   -1.7799 H   0  0
   10.5365   -3.0596   -1.6897 H   0  0
   11.4440   -1.5511   -1.4982 H   0  0
  1  2  2  0
  1 45  1  0
  2  3  1  0
  2 46  1  0
  3  4  2  0
  3 47  1  0
  4  5  1  0
  4 48  1  0
  5  6  2  0
  5 40  1  0
  6  1  1  0
  7  8  1  0
  7 38  2  0
  8  9  1  0
  8 39  1  0
  9 10  2  0
  9 49  1  0
 10 12  1  0
 10 50  1  0
 11  7  1  0
 11 12  2  0
 12 13  1  0
 13 14  2  0
 14 15  1  0
 14 16  1  0
 15 11  1  0
 16 17  1  0
 16 51  1  0
 16 52  1  0
 17 53  1  0
 17 54  1  0
 17 55  1  0
 18 15  1  0
 18 22  1  0
 18 56  1  0
 19 20  1  0
 19 57  1  0
 19 58  1  0
 20 18  1  0
 20 59  1  0
 20 60  1  0
 21 19  1  0
 21 22  2  0
 22 23  1  0
 23 24  2  0
 23 61  1  0
 24 25  1  0
 24 62  1  0
 25 26  2  0
 25 27  1  0
 26 21  1  0
 26 63  1  0
 27 28  2  0
 28 29  1  0
 28 64  1  0
 29 30  2  0
 29 65  1  0
 30 31  1  0
 30 66  1  0
 31 32  2  0
 31 67  1  0
 32 27  1  0
 32 33  1  0
 33 34  1  0
 34 35  1  0
 34 68  1  0
 35 36  2  0
 36 37  1  0
 37 33  2  0
 39  6  1  0
 39 69  1  0
 39 70  1  0
 40 41  1  0
 41 42  1  0
 41 43  1  0
 41 44  1  0
M  END
> <Name>
CHEMBL2322447

> <Clean Energy>
109.976997

> <chembl_id>
CHEMBL2322447

> <chembl_pref_name>
None

> <efficacy>
0.326086957

> <Forcefield>
MMFF

> <ForcefieldBase>
MMFF

> <ForcefieldFFML>
<?xml version="1.0" encoding="UTF-8"?>
<!DOCTYPE ffml SYSTEM "Ffml.dtd">
<ffml version="1.0">
<forcefield name="MMFF" derivedFrom="MMFF" base="MMFF">
<atomTypes>
<atomType
name="C100"
element="C"
mass="12.011"
annotation=""/>
<atomType
name="N101"
element="N"
mass="14.007"
annotation=""/>
<atomType
name="O102"
element="O"
mass="16"
annotation=""/>
<atomType
name="F103"
element="F"
mass="18.998"
annotation=""/>
<atomType
name="H104"
element="H"
mass="1.008"
annotation=""/>
</atomTypes>
<parameters>
</parameters>
</forcefield>
</ffml>

> <Initial Potential Energy>
253.28607

> <Initial RMS Gradient>
35.73877

> <Minimization Criteria>
STEEPD> Minimization exiting with gradient tolerance ( 3.0000000) satisfied.

> <CHARMm Energy>
71.13532

> <Potential Energy>
71.13532

> <RMS Gradient>
0.03218

> <Bond Energy>
12.46274

> <Angle Energy>
31.90722

> <STRBend>
-0.42614

> <Dihedral Energy>
3.79007

> <OOPLane>
0.26672

> <Van der Waals Energy>
76.43082

> <Electrostatic Energy>
-53.29611

> <Hydrogen Bond Energy>
0

> <Solvation Free Energy>
0

> <HasGasteigerCharges>
true

> <REMARK99>
REMARK  99  MacroMolecule created from Mol2 file
REMARK  99  CHEMBL2322447
REMARK  99  PROTEIN
REMARK  99  GASTEIGER
REMARK  99
REMARK  99

$$$$
CHEMBL3754569
  SciTegic05292516403D

 48 49  0  0  0  0            999 V2000
    5.6275   -5.6999   -0.8059 C   0  0
    4.7105   -5.5561    0.4271 C   0  0
    5.5058   -4.8088    1.5111 C   0  0
    3.3984   -4.8278    0.0611 C   0  0
    3.5627   -3.3984   -0.4589 C   0  0
    2.2104   -2.7973   -0.8284 C   0  0
    2.4219   -1.4403   -1.2394 O   0  0
    1.2697   -0.7175   -1.0921 C   0  0
    1.0728    0.0898    0.0320 C   0  0
   -0.1206    0.7945    0.1776 C   0  0
   -1.1099    0.7020   -0.8083 C   0  0
   -0.8897   -0.0825   -1.9466 C   0  0
    0.3044   -0.7848   -2.0952 C   0  0
   -2.4102    1.3423   -0.6227 C   0  0
   -3.2935    0.7791    0.2154 C   0  0
   -4.6611    1.2791    0.3983 C   0  0
    4.3259   -6.9720    0.8805 C   0  0
    4.2937   -7.9394    0.1315 O   0  0
    3.9845   -7.0993    2.1812 O   0  0
   -4.8730    2.6401    0.6674 C   0  0
   -6.1654    3.1334    0.8508 C   0  0
   -7.2539    2.2685    0.7736 C   0  0
   -7.0653    0.9119    0.5252 C   0  0
   -5.7723    0.4170    0.3427 C   0  0
   -5.5974   -1.2789    0.0280 Cl  0  0
   -8.8452    2.8837    0.9865 Cl  0  0
    2.2587    0.1942    1.2821 Cl  0  0
    6.4833   -6.3495   -0.5845 H   0  0
    6.0272   -4.7351   -1.1361 H   0  0
    5.0917   -6.1451   -1.6522 H   0  0
    4.8643   -4.4805    2.3357 H   0  0
    5.9912   -3.9125    1.1088 H   0  0
    6.2897   -5.4463    1.9358 H   0  0
    2.8605   -5.4175   -0.6940 H   0  0
    2.7421   -4.8079    0.9422 H   0  0
    4.0406   -2.7635    0.2960 H   0  0
    4.2122   -3.3694   -1.3407 H   0  0
    1.7631   -3.3564   -1.6587 H   0  0
    1.5382   -2.8538    0.0385 H   0  0
   -0.2883    1.3922    1.0689 H   0  0
   -1.6573   -0.1788   -2.7103 H   0  0
    0.4678   -1.3961   -2.9779 H   0  0
   -2.6365    2.2198   -1.2248 H   0  0
   -3.0382   -0.1320    0.7572 H   0  0
    3.8898   -6.2585    2.6646 H   0  0
   -4.0324    3.3272    0.7404 H   0  0
   -6.3134    4.1915    1.0522 H   0  0
   -7.9193    0.2433    0.4708 H   0  0
  1 28  1  0
  1 29  1  0
  1 30  1  0
  2  1  1  0
  2  4  1  0
  2 17  1  0
  3  2  1  0
  3 31  1  0
  3 32  1  0
  3 33  1  0
  4  5  1  0
  4 34  1  0
  4 35  1  0
  5  6  1  0
  5 36  1  0
  5 37  1  0
  6  7  1  0
  6 38  1  0
  6 39  1  0
  7  8  1  0
  8  9  1  0
  8 13  2  0
  9 10  2  0
  9 27  1  0
 10 11  1  0
 10 40  1  0
 11 12  2  0
 11 14  1  0
 12 13  1  0
 12 41  1  0
 13 42  1  0
 14 15  2  0
 14 43  1  0
 15 16  1  0
 15 44  1  0
 16 20  2  0
 17 18  2  0
 17 19  1  0
 19 45  1  0
 20 21  1  0
 20 46  1  0
 21 22  2  0
 21 47  1  0
 22 23  1  0
 22 26  1  0
 23 24  2  0
 23 48  1  0
 24 16  1  0
 24 25  1  0
M  END
> <Name>
CHEMBL3754569

> <Clean Energy>
10.0475

> <chembl_id>
CHEMBL3754569

> <chembl_pref_name>
None

> <efficacy>
0.18

> <Forcefield>
MMFF

> <ForcefieldBase>
MMFF

> <ForcefieldFFML>
<?xml version="1.0" encoding="UTF-8"?>
<!DOCTYPE ffml SYSTEM "Ffml.dtd">
<ffml version="1.0">
<forcefield name="MMFF" derivedFrom="MMFF" base="MMFF">
<atomTypes>
<atomType
name="C100"
element="C"
mass="12.011"
annotation=""/>
<atomType
name="O101"
element="O"
mass="16"
annotation=""/>
<atomType
name="Cl102"
element="Cl"
mass="35.453"
annotation=""/>
<atomType
name="H103"
element="H"
mass="1.008"
annotation=""/>
</atomTypes>
<parameters>
</parameters>
</forcefield>
</ffml>

> <Initial Potential Energy>
101.12965

> <Initial RMS Gradient>
26.56804

> <Minimization Criteria>
STEEPD> Minimization exiting with gradient tolerance ( 3.0000000) satisfied.

> <CHARMm Energy>
46.76967

> <Potential Energy>
46.76967

> <RMS Gradient>
0.11661

> <Bond Energy>
4.82008

> <Angle Energy>
6.19315

> <STRBend>
0.76901

> <Dihedral Energy>
15.56914

> <OOPLane>
0.08962

> <Van der Waals Energy>
51.54848

> <Electrostatic Energy>
-32.21982

> <Hydrogen Bond Energy>
0

> <Solvation Free Energy>
0

> <HasGasteigerCharges>
true

> <REMARK99>
REMARK  99  MacroMolecule created from Mol2 file
REMARK  99  CHEMBL3754569
REMARK  99  PROTEIN
REMARK  99  GASTEIGER
REMARK  99
REMARK  99

$$$$
CHEMBL2322445
  SciTegic05292516403D

 67 73  0  0  0  0            999 V2000
   29.8301  -21.2654   -1.6103 C   0  0
   30.2972  -22.4416   -2.2027 C   0  0
   31.4129  -23.0908   -1.6859 C   0  0
   32.0725  -22.5554   -0.5815 C   0  0
   31.6197  -21.3684    0.0144 C   0  0
   30.4684  -20.7180   -0.4804 C   0  0
   27.5527  -19.9453    0.4901 C   0  0
   28.5631  -19.1276   -0.0994 N   0  0
   28.2599  -18.0115   -0.8899 C   0  0
   26.9892  -17.6496   -1.1422 C   0  0
   26.2128  -19.5467    0.1391 C   0  0
   25.9416  -18.4352   -0.6127 C   0  0
   24.6216  -18.1729   -0.7054 N   0  0
   24.0410  -19.1127    0.0265 C   0  0
   24.9721  -20.0715    0.4301 N   0  0
   22.5818  -19.1147    0.3664 C   0  0
   22.0394  -17.7038    0.5591 C   0  0
   24.7489  -21.3727    1.0598 C   0  0  1  0  0  0
   23.4989  -22.3494    2.9623 C   0  0
   24.5054  -21.2558    2.5790 C   0  0
   22.7633  -22.5640    1.6768 C   0  0
   23.5052  -22.0926    0.5889 C   0  0
   23.0491  -22.2803   -0.7081 C   0  0
   21.7695  -22.8117   -0.8937 C   0  0
   20.9610  -23.1871    0.2037 C   0  0
   21.5031  -23.1171    1.5000 C   0  0
   19.5261  -23.4651   -0.0050 C   0  0
   18.6047  -22.5456    0.5553 C   0  0
   17.2364  -22.6186    0.2999 C   0  0
   16.7545  -23.6086   -0.5383 C   0  0
   17.6349  -24.5413   -1.0829 C   0  0
   19.0182  -24.5046   -0.8116 C   0  0
   19.8112  -25.5994   -1.3674 C   0  0
   20.7969  -26.2839   -0.7082 N   0  0
   21.1026  -27.4097   -1.3761 N   0  0
   20.4052  -27.3429   -2.4988 N   0  0
   19.5911  -26.2388   -2.5035 N   0  0
   27.8170  -20.8697    1.2552 O   0  0
   29.9667  -19.4437    0.1865 C   0  0
   32.3680  -20.8304    1.1168 C   0  0
   32.9860  -20.3644    1.9823 N   0  0
   28.9436  -20.7985   -2.0378 H   0  0
   29.7813  -22.8545   -3.0672 H   0  0
   31.7787  -24.0062   -2.1465 H   0  0
   32.9507  -23.0668   -0.1902 H   0  0
   29.0935  -17.4324   -1.2802 H   0  0
   26.7587  -16.7685   -1.7326 H   0  0
   22.0221  -19.5974   -0.4410 H   0  0
   22.3919  -19.6654    1.2908 H   0  0
   20.9798  -17.7404    0.8320 H   0  0
   22.1304  -17.1119   -0.3578 H   0  0
   22.5796  -17.1787    1.3543 H   0  0
   25.6076  -22.0186    0.8459 H   0  0
   24.0102  -23.2713    3.2581 H   0  0
   22.8402  -22.0157    3.7693 H   0  0
   24.0829  -20.2754    2.8369 H   0  0
   25.4370  -21.3443    3.1488 H   0  0
   23.6300  -21.9402   -1.5623 H   0  0
   21.3611  -22.8554   -1.9050 H   0  0
   20.9122  -23.4150    2.3636 H   0  0
   18.9589  -21.7269    1.1802 H   0  0
   16.5548  -21.8922    0.7357 H   0  0
   15.6952  -23.6604   -0.7687 H   0  0
   17.2309  -25.3223   -1.7264 H   0  0
   21.2042  -26.1131    0.2013 H   0  0
   30.6084  -18.6073   -0.1155 H   0  0
   30.0367  -19.5505    1.2760 H   0  0
  1  2  2  0
  1 42  1  0
  2  3  1  0
  2 43  1  0
  3  4  2  0
  3 44  1  0
  4  5  1  0
  4 45  1  0
  5  6  2  0
  5 40  1  0
  6  1  1  0
  7  8  1  0
  7 38  2  0
  8  9  1  0
  8 39  1  0
  9 10  2  0
  9 46  1  0
 10 12  1  0
 10 47  1  0
 11  7  1  0
 11 12  2  0
 12 13  1  0
 13 14  2  0
 14 15  1  0
 14 16  1  0
 15 11  1  0
 16 17  1  0
 16 48  1  0
 16 49  1  0
 17 50  1  0
 17 51  1  0
 17 52  1  0
 18 15  1  0
 18 22  1  0
 18 53  1  0
 19 20  1  0
 19 54  1  0
 19 55  1  0
 20 18  1  0
 20 56  1  0
 20 57  1  0
 21 19  1  0
 21 22  2  0
 22 23  1  0
 23 24  2  0
 23 58  1  0
 24 25  1  0
 24 59  1  0
 25 26  2  0
 25 27  1  0
 26 21  1  0
 26 60  1  0
 27 28  2  0
 28 29  1  0
 28 61  1  0
 29 30  2  0
 29 62  1  0
 30 31  1  0
 30 63  1  0
 31 32  2  0
 31 64  1  0
 32 27  1  0
 32 33  1  0
 33 34  1  0
 34 35  1  0
 34 65  1  0
 35 36  2  0
 36 37  1  0
 37 33  2  0
 39  6  1  0
 39 66  1  0
 39 67  1  0
 40 41  3  0
M  END
> <Name>
CHEMBL2322445

> <Clean Energy>
148.432007

> <chembl_id>
CHEMBL2322445

> <chembl_pref_name>
None

> <efficacy>
0.260869565

> <Forcefield>
MMFF

> <ForcefieldBase>
MMFF

> <ForcefieldFFML>
<?xml version="1.0" encoding="UTF-8"?>
<!DOCTYPE ffml SYSTEM "Ffml.dtd">
<ffml version="1.0">
<forcefield name="MMFF" derivedFrom="MMFF" base="MMFF">
<atomTypes>
<atomType
name="C100"
element="C"
mass="12.011"
annotation=""/>
<atomType
name="N101"
element="N"
mass="14.007"
annotation=""/>
<atomType
name="O102"
element="O"
mass="16"
annotation=""/>
<atomType
name="H103"
element="H"
mass="1.008"
annotation=""/>
</atomTypes>
<parameters>
</parameters>
</forcefield>
</ffml>

> <Initial Potential Energy>
429.49798

> <Initial RMS Gradient>
52.89666

> <Minimization Criteria>
STEEPD> Minimization exiting with gradient tolerance ( 3.0000000) satisfied.

> <CHARMm Energy>
71.27776

> <Potential Energy>
71.27776

> <RMS Gradient>
0.08731

> <Bond Energy>
11.39729

> <Angle Energy>
19.21923

> <STRBend>
-0.6106

> <Dihedral Energy>
11.60466

> <OOPLane>
0.61274

> <Van der Waals Energy>
71.62461

> <Electrostatic Energy>
-42.57017

> <Hydrogen Bond Energy>
0

> <Solvation Free Energy>
0

> <HasGasteigerCharges>
true

> <REMARK99>
REMARK  99  MacroMolecule created from Mol2 file
REMARK  99  CHEMBL2322445
REMARK  99  PROTEIN
REMARK  99  GASTEIGER
REMARK  99
REMARK  99

$$$$
CHEMBL1081003
  SciTegic05292516403D

 70 73  0  0  0  0            999 V2000
   -5.8291    3.0936   -0.0180 C   0  0
   -5.6151    1.7168    0.0602 C   0  0
   -4.3146    1.2085    0.0962 C   0  0
   -3.2094    2.0581    0.0506 C   0  0
   -3.4154    3.4338   -0.0279 C   0  0
   -4.7210    3.9607   -0.0613 C   0  0
   -4.9255    5.4512   -0.1380 C   0  0
   -7.0573    3.6991   -0.0547 O   0  0
   -8.2117    2.8729   -0.0320 C   0  0
   -9.4849    3.7103   -0.0890 C   0  0
  -10.6108    2.9489   -0.0725 O   0  0
   -9.5400    4.9292   -0.1443 O   0  0
   -2.0053    1.4148    0.1011 O   0  0
   -0.8197    2.1939   -0.0571 C   0  0
    0.3645    1.2282    0.0027 C   0  0
    1.6974    1.9371   -0.2314 C   0  0
    2.8695    0.9553   -0.1463 C   0  0
    4.4054    1.8295   -0.5386 S   0  0
    5.6679    0.6563   -0.2338 C   0  0
    5.5038   -1.0458   -0.2448 S   0  0
    7.2027   -1.2196    0.0013 C   0  0
    7.7733    0.0411    0.1181 C   0  0
    6.8874    1.0973   -0.0333 N   0  0
    9.1890    0.3318    0.3192 C   0  0
    9.9990   -0.4180    1.1770 C   0  0
   11.3515   -0.0940    1.3315 C   0  0
   11.9140    0.9847    0.6449 C   0  0
   11.1072    1.7510   -0.1935 C   0  0
    9.7536    1.4276   -0.3500 C   0  0
    7.7966   -2.5572   -0.0112 C   0  0
    7.4796   -3.5025    0.9709 C   0  0
    8.0867   -4.7618    0.9605 C   0  0
    9.0199   -5.0967   -0.0232 C   0  0
    9.3356   -4.1618   -1.0078 C   0  0
    8.7279   -2.9004   -1.0008 C   0  0
   13.2446    1.1830    0.8852 O   0  0
   13.8797    2.2434    0.1804 C   0  0
    9.5446   -6.3542    0.0900 O   0  0
   10.5661   -6.7090   -0.8340 C   0  0
   -6.4298    1.0044    0.0978 H   0  0
   -4.1505    0.1353    0.1590 H   0  0
   -2.5779    4.1229   -0.0585 H   0  0
   -5.4836    5.7116   -1.0432 H   0  0
   -3.9710    5.9870   -0.1718 H   0  0
   -5.4726    5.8038    0.7425 H   0  0
   -8.2155    2.2141   -0.9079 H   0  0
   -8.2408    2.2990    0.9011 H   0  0
  -10.4522    1.9876   -0.0287 H   0  0
   -0.8346    2.7058   -1.0266 H   0  0
   -0.7375    2.9267    0.7539 H   0  0
    0.3693    0.7231    0.9771 H   0  0
    0.2236    0.4363   -0.7442 H   0  0
    1.6738    2.4149   -1.2192 H   0  0
    1.8194    2.7326    0.5147 H   0  0
    2.9302    0.5338    0.8626 H   0  0
    2.7230    0.1384   -0.8602 H   0  0
    9.6037   -1.2548    1.7460 H   0  0
   11.9715   -0.6883    1.9990 H   0  0
   11.4921    2.6079   -0.7358 H   0  0
    9.1308    2.0419   -1.0000 H   0  0
    6.7708   -3.2661    1.7606 H   0  0
    7.8397   -5.4876    1.7323 H   0  0
   10.0515   -4.3766   -1.7943 H   0  0
    8.9970   -2.1842   -1.7754 H   0  0
   14.9362    2.2492    0.4647 H   0  0
   13.4536    3.2122    0.4608 H   0  0
   13.8257    2.0864   -0.9021 H   0  0
   10.9075   -7.7179   -0.5832 H   0  0
   11.4264   -6.0366   -0.7513 H   0  0
   10.1790   -6.7331   -1.8579 H   0  0
  1  2  2  0
  1  8  1  0
  2  3  1  0
  2 40  1  0
  3  4  2  0
  3 41  1  0
  4  5  1  0
  4 13  1  0
  5  6  2  0
  5 42  1  0
  6  1  1  0
  6  7  1  0
  7 43  1  0
  7 44  1  0
  7 45  1  0
  8  9  1  0
  9 10  1  0
  9 46  1  0
  9 47  1  0
 10 11  1  0
 10 12  2  0
 11 48  1  0
 13 14  1  0
 14 15  1  0
 14 49  1  0
 14 50  1  0
 15 16  1  0
 15 51  1  0
 15 52  1  0
 16 17  1  0
 16 53  1  0
 16 54  1  0
 17 18  1  0
 17 55  1  0
 17 56  1  0
 18 19  1  0
 19 20  1  0
 20 21  1  0
 21 22  2  0
 21 30  1  0
 22 23  1  0
 22 24  1  0
 23 19  2  0
 24 25  2  0
 25 26  1  0
 25 57  1  0
 26 27  2  0
 26 58  1  0
 27 28  1  0
 27 36  1  0
 28 29  2  0
 28 59  1  0
 29 24  1  0
 29 60  1  0
 30 31  2  0
 31 32  1  0
 31 61  1  0
 32 33  2  0
 32 62  1  0
 33 34  1  0
 33 38  1  0
 34 35  2  0
 34 63  1  0
 35 30  1  0
 35 64  1  0
 36 37  1  0
 37 65  1  0
 37 66  1  0
 37 67  1  0
 38 39  1  0
 39 68  1  0
 39 69  1  0
 39 70  1  0
M  END
> <Name>
CHEMBL1081003

> <Clean Energy>
43.6506

> <chembl_id>
CHEMBL1081003

> <chembl_pref_name>
None

> <efficacy>
0.39

> <Forcefield>
MMFF

> <ForcefieldBase>
MMFF

> <ForcefieldFFML>
<?xml version="1.0" encoding="UTF-8"?>
<!DOCTYPE ffml SYSTEM "Ffml.dtd">
<ffml version="1.0">
<forcefield name="MMFF" derivedFrom="MMFF" base="MMFF">
<atomTypes>
<atomType
name="C100"
element="C"
mass="12.011"
annotation=""/>
<atomType
name="O101"
element="O"
mass="16"
annotation=""/>
<atomType
name="S102"
element="S"
mass="32.066"
annotation=""/>
<atomType
name="N103"
element="N"
mass="14.007"
annotation=""/>
<atomType
name="H104"
element="H"
mass="1.008"
annotation=""/>
</atomTypes>
<parameters>
</parameters>
</forcefield>
</ffml>

> <Initial Potential Energy>
1159.14607

> <Initial RMS Gradient>
685.92624

> <Minimization Criteria>
STEEPD> Minimization exiting with gradient tolerance ( 3.0000000) satisfied.

> <CHARMm Energy>
87.13967

> <Potential Energy>
87.13967

> <RMS Gradient>
0.05308

> <Bond Energy>
6.27378

> <Angle Energy>
33.70707

> <STRBend>
-0.56679

> <Dihedral Energy>
1.1425

> <OOPLane>
0.0795

> <Van der Waals Energy>
73.49181

> <Electrostatic Energy>
-26.98821

> <Hydrogen Bond Energy>
0

> <Solvation Free Energy>
0

> <HasGasteigerCharges>
true

> <REMARK99>
REMARK  99  MacroMolecule created from Mol2 file
REMARK  99  CHEMBL1081003
REMARK  99  PROTEIN
REMARK  99  GASTEIGER
REMARK  99
REMARK  99

$$$$
CHEMBL214719
  SciTegic05292516403D

 63 67  0  0  0  0            999 V2000
   -2.2718   -4.6462    1.3702 C   0  0
   -2.6392   -4.7296    0.0285 C   0  0
   -1.7427   -4.3553   -0.9687 C   0  0
   -0.4700   -3.9045   -0.6238 C   0  0
   -0.0820   -3.8272    0.7217 C   0  0
   -0.9990   -4.1945    1.7173 C   0  0
    1.3172   -3.3770    1.0894 C   0  0
    2.4007   -4.3773    0.7414 C   0  0
    2.2837   -5.6802    1.2076 C   0  0
    3.1710   -6.6689    0.9740 N   0  0
    3.5541   -4.0713   -0.0059 C   0  0
    4.5371   -5.0891   -0.2227 C   0  0
    4.2790   -6.3887    0.2767 C   0  0
    5.2013   -7.4069    0.0415 C   0  0
    6.4127   -7.1432   -0.6273 C   0  0
    6.6918   -5.8700   -1.0976 C   0  0
    5.7530   -4.8620   -0.9164 C   0  0
    4.8770   -8.8008    0.5063 C   0  0
    4.7853   -8.9299    1.8602 F   0  0
    5.8303   -9.7118    0.1349 F   0  0
    3.7169   -9.3006   -0.0110 F   0  0
    3.7285   -2.7376   -0.6145 C   0  0
    4.5899   -1.7803   -0.0489 C   0  0
    4.1411   -0.2825   -1.8866 C   0  0
    3.2553   -1.2040   -2.4424 C   0  0
    4.8325   -0.5714   -0.7058 C   0  0
    3.0726   -2.4343   -1.8192 C   0  0
    5.7152    0.3955   -0.3003 O   0  0
    6.7728   -0.0223    0.5682 C   0  0
    7.9741    0.8866    0.4001 C   0  0
    9.1782    0.3724   -0.1054 C   0  0
   10.2414    2.5418    0.0972 C   0  0
    9.0398    3.0635    0.5963 C   0  0
   10.2996    1.1885   -0.2558 C   0  0
    7.9157    2.2410    0.7473 C   0  0
   11.4445    3.4309   -0.1079 C   0  0
   12.6751    3.0561    0.6879 C   0  0
   12.4566    2.7807    1.9942 O   0  0
   13.8085    3.0863    0.2243 O   0  0
   -2.9799   -4.9380    2.1431 H   0  0
   -3.6286   -5.0889   -0.2408 H   0  0
   -2.0345   -4.4204   -2.0137 H   0  0
    0.2229   -3.6189   -1.4106 H   0  0
   -0.7243   -4.1389    2.7682 H   0  0
    1.4836   -2.4028    0.6177 H   0  0
    1.3773   -3.1822    2.1687 H   0  0
    1.4284   -5.9908    1.8029 H   0  0
    7.1397   -7.9388   -0.7874 H   0  0
    7.6298   -5.6570   -1.6077 H   0  0
    5.9975   -3.8770   -1.3131 H   0  0
    5.0854   -2.0154    0.8887 H   0  0
    4.3227    0.6610   -2.3916 H   0  0
    2.7230   -0.9813   -3.3659 H   0  0
    2.4142   -3.1689   -2.2831 H   0  0
    6.4277    0.0237    1.6080 H   0  0
    7.0844   -1.0520    0.3512 H   0  0
    9.2448   -0.6750   -0.3970 H   0  0
    8.9611    4.1193    0.8538 H   0  0
   11.2177    0.7682   -0.6662 H   0  0
    6.9885    2.6745    1.1211 H   0  0
   11.7051    3.4088   -1.1733 H   0  0
   11.2054    4.4723    0.1380 H   0  0
   11.5067    2.7239    2.2202 H   0  0
  1  2  2  0
  1 40  1  0
  2  3  1  0
  2 41  1  0
  3  4  2  0
  3 42  1  0
  4  5  1  0
  4 43  1  0
  5  6  2  0
  5  7  1  0
  6  1  1  0
  6 44  1  0
  7  8  1  0
  7 45  1  0
  7 46  1  0
  8  9  2  0
  8 11  1  0
  9 10  1  0
  9 47  1  0
 10 13  2  0
 11 22  1  0
 12 11  2  0
 12 13  1  0
 13 14  1  0
 14 15  2  0
 14 18  1  0
 15 16  1  0
 15 48  1  0
 16 17  2  0
 16 49  1  0
 17 12  1  0
 17 50  1  0
 18 19  1  0
 18 20  1  0
 18 21  1  0
 22 23  2  0
 22 27  1  0
 23 26  1  0
 23 51  1  0
 24 25  1  0
 24 52  1  0
 25 27  2  0
 25 53  1  0
 26 24  2  0
 26 28  1  0
 27 54  1  0
 28 29  1  0
 29 30  1  0
 29 55  1  0
 29 56  1  0
 30 31  2  0
 30 35  1  0
 31 34  1  0
 31 57  1  0
 32 33  1  0
 32 36  1  0
 33 35  2  0
 33 58  1  0
 34 32  2  0
 34 59  1  0
 35 60  1  0
 36 37  1  0
 36 61  1  0
 36 62  1  0
 37 38  1  0
 37 39  2  0
 38 63  1  0
M  END
> <Name>
CHEMBL214719

> <Clean Energy>
34.811901

> <chembl_id>
CHEMBL214719

> <chembl_pref_name>
None

> <efficacy>
0.355

> <Forcefield>
MMFF

> <ForcefieldBase>
MMFF

> <ForcefieldFFML>
<?xml version="1.0" encoding="UTF-8"?>
<!DOCTYPE ffml SYSTEM "Ffml.dtd">
<ffml version="1.0">
<forcefield name="MMFF" derivedFrom="MMFF" base="MMFF">
<atomTypes>
<atomType
name="C100"
element="C"
mass="12.011"
annotation=""/>
<atomType
name="N101"
element="N"
mass="14.007"
annotation=""/>
<atomType
name="F102"
element="F"
mass="18.998"
annotation=""/>
<atomType
name="O103"
element="O"
mass="16"
annotation=""/>
<atomType
name="H104"
element="H"
mass="1.008"
annotation=""/>
</atomTypes>
<parameters>
</parameters>
</forcefield>
</ffml>

> <Initial Potential Energy>
402.26498

> <Initial RMS Gradient>
66.62052

> <Minimization Criteria>
CONJUG> Minimization exiting with gradient tolerance ( 0.0100000) satisfied.

> <CHARMm Energy>
103.83391

> <Potential Energy>
103.83391

> <RMS Gradient>
0.00828

> <Bond Energy>
10.32976

> <Angle Energy>
11.85788

> <STRBend>
0.22196

> <Dihedral Energy>
10.57626

> <OOPLane>
0.23835

> <Van der Waals Energy>
86.57938

> <Electrostatic Energy>
-15.96968

> <Hydrogen Bond Energy>
0

> <Solvation Free Energy>
0

> <HasGasteigerCharges>
true

> <REMARK99>
REMARK  99  MacroMolecule created from Mol2 file
REMARK  99  CHEMBL214719
REMARK  99  PROTEIN
REMARK  99  GASTEIGER
REMARK  99
REMARK  99

$$$$
CHEMBL190905
  SciTegic05292516403D

 32 33  0  0  0  0            999 V2000
    7.3596   -1.0081    0.4764 C   0  0
    6.5102   -2.2740    0.3378 C   0  0  2  0  0  0
    5.1767   -1.9162    0.7537 O   0  0
    7.0860   -3.3673    1.2536 C   0  0
    8.5658   -0.9603    0.2795 O   0  0
    4.1260   -2.6835    0.3356 C   0  0
    6.6431    0.0887    0.8299 O   0  0
    1.7978   -4.0914   -0.3252 C   0  0
    7.5745   -4.5695    0.4775 C   0  0
    0.3721   -4.9624   -0.7310 Cl  0  0
    4.1647   -3.6891   -0.6303 C   0  0
    2.9100   -2.3828    0.9595 C   0  0
    1.7468   -3.0847    0.6335 C   0  0
    3.0006   -4.3949   -0.9581 C   0  0
    6.8722   -5.7816    0.5211 C   0  0
    8.7372   -4.4843   -0.3013 C   0  0
    9.1814   -5.5880   -1.0307 C   0  0
    7.3182   -6.8833   -0.2102 C   0  0
    8.4712   -6.7860   -0.9868 C   0  0
    6.5321   -2.5082   -0.7326 H   0  0
    7.9268   -2.9976    1.8551 H   0  0
    6.3330   -3.6927    1.9828 H   0  0
    5.6978   -0.1574    0.9389 H   0  0
    5.0736   -3.9590   -1.1579 H   0  0
    2.8631   -1.5993    1.7126 H   0  0
    0.8112   -2.8414    1.1300 H   0  0
    3.0426   -5.1787   -1.7106 H   0  0
    5.9718   -5.8785    1.1245 H   0  0
    9.3110   -3.5592   -0.3414 H   0  0
   10.0857   -5.5133   -1.6295 H   0  0
    6.7686   -7.8204   -0.1705 H   0  0
    8.8206   -7.6457   -1.5526 H   0  0
  2  1  1  0
  2 20  1  0
  3  2  1  0
  4  2  1  0
  4 21  1  0
  4 22  1  0
  5  1  2  0
  6  3  1  0
  7  1  1  0
  7 23  1  0
  8 13  2  0
  8 14  1  0
  9  4  1  0
 10  8  1  0
 11  6  1  0
 11 24  1  0
 12  6  2  0
 12 25  1  0
 13 12  1  0
 13 26  1  0
 14 11  2  0
 14 27  1  0
 15  9  2  0
 15 28  1  0
 16  9  1  0
 16 29  1  0
 17 16  2  0
 17 30  1  0
 18 15  1  0
 18 31  1  0
 19 17  1  0
 19 18  2  0
 19 32  1  0
M  END
> <Name>
CHEMBL190905

> <Clean Energy>
17.9447

> <chembl_id>
CHEMBL190905

> <chembl_pref_name>
None

> <efficacy>
0.08

> <Forcefield>
MMFF

> <ForcefieldBase>
MMFF

> <ForcefieldFFML>
<?xml version="1.0" encoding="UTF-8"?>
<!DOCTYPE ffml SYSTEM "Ffml.dtd">
<ffml version="1.0">
<forcefield name="MMFF" derivedFrom="MMFF" base="MMFF">
<atomTypes>
<atomType
name="C100"
element="C"
mass="12.011"
annotation=""/>
<atomType
name="O101"
element="O"
mass="16"
annotation=""/>
<atomType
name="Cl102"
element="Cl"
mass="35.453"
annotation=""/>
<atomType
name="H103"
element="H"
mass="1.008"
annotation=""/>
</atomTypes>
<parameters>
</parameters>
</forcefield>
</ffml>

> <Initial Potential Energy>
101.57763

> <Initial RMS Gradient>
31.61771

> <Minimization Criteria>
CONJUG> Minimization exiting with gradient tolerance ( 0.0100000) satisfied.

> <CHARMm Energy>
46.83786

> <Potential Energy>
46.83786

> <RMS Gradient>
0.0084

> <Bond Energy>
3.56801

> <Angle Energy>
9.71258

> <STRBend>
0.27968

> <Dihedral Energy>
0.29081

> <OOPLane>
0.00554

> <Van der Waals Energy>
38.80866

> <Electrostatic Energy>
-5.82742

> <Hydrogen Bond Energy>
0

> <Solvation Free Energy>
0

> <HasGasteigerCharges>
true

> <REMARK99>
REMARK  99  MacroMolecule created from Mol2 file
REMARK  99  CHEMBL190905
REMARK  99  PROTEIN
REMARK  99  GASTEIGER
REMARK  99
REMARK  99

$$$$
CHEMBL5089555
  SciTegic05292516403D

 48 51  0  0  0  0            999 V2000
    8.4329  -10.9555    0.0083 C   0  0
    9.6742  -10.0774    0.2886 C   0  0
    8.5441  -12.0659   -0.5002 O   0  0
    7.2518  -10.3204    0.3801 N   0  0
    5.9336  -10.7994    0.2505 C   0  0
    5.6018  -12.0368   -0.2992 C   0  0
    3.2348  -11.5982    0.0492 C   0  0
    4.9047   -9.9675    0.7091 C   0  0
    4.2634  -12.4353   -0.3943 C   0  0
    3.5673  -10.3646    0.6145 C   0  0
    1.8049  -12.0441   -0.0247 C   0  0
   10.8874  -10.8116    0.1586 O   0  0
   13.1199  -10.8171   -0.4936 C   0  0
   12.0442  -10.0984    0.0345 C   0  0
   12.2216   -8.7692    0.4050 C   0  0
   13.4638   -8.1548    0.2219 C   0  0
   14.5451   -8.8632   -0.3250 C   0  0
   15.7989   -8.2621   -0.5091 C   0  0
   16.8705   -8.9889   -1.0428 C   0  0
   16.6914  -10.3221   -1.4103 C   0  0
   15.4491  -10.9315   -1.2314 C   0  0
   14.3708  -10.2153   -0.6880 C   0  0
   18.1637   -8.3268   -1.1919 C   0  0
   20.6296   -7.5127   -0.4813 S   0  0
   21.2575   -8.1136    1.0340 C   0  0
   20.4317   -9.0558    1.5416 N   0  0
   19.2923   -9.3426    0.8582 C   0  0
   19.1916   -8.4660   -0.3460 C   0  0
   18.5061  -10.2037    1.2097 O   0  0
   22.2937   -7.7288    1.5461 O   0  0
    9.6382   -9.2506   -0.4323 H   0  0
    9.5964   -9.6882    1.3106 H   0  0
    7.3577   -9.4086    0.8061 H   0  0
    6.3605  -12.7227   -0.6634 H   0  0
    5.1246   -8.9987    1.1490 H   0  0
    4.0341  -13.4095   -0.8210 H   0  0
    2.7872   -9.7030    0.9845 H   0  0
    1.1344  -11.1867   -0.1455 H   0  0
    1.5324  -12.5806    0.8893 H   0  0
    1.6453  -12.7040   -0.8839 H   0  0
   12.9789  -11.8622   -0.7599 H   0  0
   11.4300   -8.1848    0.8564 H   0  0
   13.5821   -7.1156    0.5198 H   0  0
   15.9465   -7.2225   -0.2230 H   0  0
   17.5155  -10.9019   -1.8185 H   0  0
   15.3299  -11.9762   -1.5109 H   0  0
   18.2148   -7.6271   -2.0229 H   0  0
   20.6705   -9.5353    2.3944 H   0  0
  1  2  1  0
  1  3  2  0
  1  4  1  0
  2 12  1  0
  2 31  1  0
  2 32  1  0
  4  5  1  0
  4 33  1  0
  5  6  1  0
  5  8  2  0
  6  9  2  0
  6 34  1  0
  7  9  1  0
  7 10  2  0
  7 11  1  0
  8 10  1  0
  8 35  1  0
  9 36  1  0
 10 37  1  0
 11 38  1  0
 11 39  1  0
 11 40  1  0
 12 14  1  0
 13 14  1  0
 13 22  2  0
 13 41  1  0
 14 15  2  0
 15 16  1  0
 15 42  1  0
 16 17  2  0
 16 43  1  0
 17 18  1  0
 17 22  1  0
 18 19  2  0
 18 44  1  0
 19 20  1  0
 19 23  1  0
 20 21  2  0
 20 45  1  0
 21 22  1  0
 21 46  1  0
 23 28  2  0
 23 47  1  0
 24 25  1  0
 24 28  1  0
 25 26  1  0
 25 30  2  0
 26 27  1  0
 26 48  1  0
 27 28  1  0
 27 29  2  0
M  END
> <Name>
CHEMBL5089555

> <Clean Energy>
28.1849

> <chembl_id>
CHEMBL5089555

> <chembl_pref_name>
None

> <efficacy>
0.13

> <Forcefield>
MMFF

> <ForcefieldBase>
MMFF

> <ForcefieldFFML>
<?xml version="1.0" encoding="UTF-8"?>
<!DOCTYPE ffml SYSTEM "Ffml.dtd">
<ffml version="1.0">
<forcefield name="MMFF" derivedFrom="MMFF" base="MMFF">
<atomTypes>
<atomType
name="C100"
element="C"
mass="12.011"
annotation=""/>
<atomType
name="O101"
element="O"
mass="16"
annotation=""/>
<atomType
name="N102"
element="N"
mass="14.007"
annotation=""/>
<atomType
name="S103"
element="S"
mass="32.066"
annotation=""/>
<atomType
name="H104"
element="H"
mass="1.008"
annotation=""/>
</atomTypes>
<parameters>
</parameters>
</forcefield>
</ffml>

> <Initial Potential Energy>
82.64207

> <Initial RMS Gradient>
32.60877

> <Minimization Criteria>
CONJUG> Minimization exiting with gradient tolerance ( 0.0100000) satisfied.

> <CHARMm Energy>
11.61972

> <Potential Energy>
11.61972

> <RMS Gradient>
0.00934

> <Bond Energy>
6.05201

> <Angle Energy>
18.10473

> <STRBend>
-0.39355

> <Dihedral Energy>
9.23782

> <OOPLane>
0.06105

> <Van der Waals Energy>
55.88463

> <Electrostatic Energy>
-77.32697

> <Hydrogen Bond Energy>
0

> <Solvation Free Energy>
0

> <HasGasteigerCharges>
true

> <REMARK99>
REMARK  99  MacroMolecule created from Mol2 file
REMARK  99  CHEMBL5089555
REMARK  99  PROTEIN
REMARK  99  GASTEIGER
REMARK  99
REMARK  99

$$$$
CHEMBL5085291
  SciTegic05292516403D

 47 50  0  0  0  0            999 V2000
    9.9165  -10.2076   -0.0318 C   0  0
   11.1787   -9.3509   -0.2614 C   0  0
    9.9769  -11.3391    0.4345 O   0  0
    8.7624   -9.5175   -0.3929 N   0  0
   12.3908  -10.0751   -0.1003 O   0  0
   14.6463  -10.0506    0.4769 C   0  0
   13.5355   -9.3399    0.0166 C   0  0
   13.6648   -7.9877   -0.2916 C   0  0
   14.8929   -7.3452   -0.1138 C   0  0
   16.0090   -8.0466    0.3680 C   0  0
   17.2481   -7.4154    0.5536 C   0  0
   18.3558   -8.1314    1.0253 C   0  0
   18.2276   -9.4868    1.3250 C   0  0
   17.0006  -10.1268    1.1433 C   0  0
   15.8851   -9.4197    0.6658 C   0  0
   19.6248   -7.4262    1.1917 C   0  0
   22.0448   -6.4732    0.4984 S   0  0
   22.6813   -6.9840   -1.0462 C   0  0
   21.9102   -7.9633   -1.5691 N   0  0
   20.8033   -8.3411   -0.8782 C   0  0
   20.6597   -7.4998    0.3461 C   0  0
   20.0726   -9.2462   -1.2384 O   0  0
   23.6790   -6.5148   -1.5641 O   0  0
    7.4299   -9.9458   -0.2725 C   0  0
    7.0542  -11.1814    0.2601 C   0  0
    5.7043  -11.5297    0.3603 C   0  0
    4.7255  -10.6320   -0.0771 C   0  0
    5.0864   -9.3931   -0.6161 C   0  0
    6.4382   -9.0567   -0.7113 C   0  0
    3.3101  -10.9902    0.0332 N   0  3
    3.0332  -12.0986    0.5110 O   0  0
    2.4758  -10.1616   -0.3578 O   0  5
   11.1321   -8.9517   -1.2820 H   0  0
   11.1187   -8.5294    0.4648 H   0  0
    8.9072   -8.5996   -0.7958 H   0  0
   14.5535  -11.1119    0.6957 H   0  0
   12.8372   -7.4066   -0.6816 H   0  0
   14.9778   -6.2887   -0.3602 H   0  0
   17.3541   -6.3575    0.3208 H   0  0
   19.0785  -10.0599    1.6846 H   0  0
   16.9216  -11.1876    1.3716 H   0  0
   19.6437   -6.7399    2.0353 H   0  0
   22.1639   -8.4043   -2.4380 H   0  0
    7.7886  -11.9010    0.6116 H   0  0
    5.4407  -12.4982    0.7813 H   0  0
    4.3357   -8.6850   -0.9611 H   0  0
    6.7019   -8.0883   -1.1302 H   0  0
  1  2  1  0
  1  3  2  0
  1  4  1  0
  2  5  1  0
  2 33  1  0
  2 34  1  0
  4 24  1  0
  4 35  1  0
  5  7  1  0
  6  7  1  0
  6 15  2  0
  6 36  1  0
  7  8  2  0
  8  9  1  0
  8 37  1  0
  9 10  2  0
  9 38  1  0
 10 11  1  0
 10 15  1  0
 11 12  2  0
 11 39  1  0
 12 13  1  0
 12 16  1  0
 13 14  2  0
 13 40  1  0
 14 15  1  0
 14 41  1  0
 16 21  2  0
 16 42  1  0
 17 18  1  0
 17 21  1  0
 18 19  1  0
 18 23  2  0
 19 20  1  0
 19 43  1  0
 20 21  1  0
 20 22  2  0
 24 25  1  0
 24 29  2  0
 25 26  2  0
 25 44  1  0
 26 27  1  0
 26 45  1  0
 27 28  2  0
 27 30  1  0
 28 29  1  0
 28 46  1  0
 29 47  1  0
 30 31  2  0
 30 32  1  0
M  CHG  2  30   1  32  -1
M  END
> <Name>
CHEMBL5085291

> <Clean Energy>
28.1912

> <chembl_id>
CHEMBL5085291

> <chembl_pref_name>
None

> <efficacy>
0.085

> <Forcefield>
MMFF

> <ForcefieldBase>
MMFF

> <ForcefieldFFML>
<?xml version="1.0" encoding="UTF-8"?>
<!DOCTYPE ffml SYSTEM "Ffml.dtd">
<ffml version="1.0">
<forcefield name="MMFF" derivedFrom="MMFF" base="MMFF">
<atomTypes>
<atomType
name="C100"
element="C"
mass="12.011"
annotation=""/>
<atomType
name="O101"
element="O"
mass="16"
annotation=""/>
<atomType
name="N102"
element="N"
mass="14.007"
annotation=""/>
<atomType
name="S103"
element="S"
mass="32.066"
annotation=""/>
<atomType
name="H104"
element="H"
mass="1.008"
annotation=""/>
</atomTypes>
<parameters>
</parameters>
</forcefield>
</ffml>

> <Initial Potential Energy>
121.69555

> <Initial RMS Gradient>
37.50032

> <Minimization Criteria>
CONJUG> Minimization exiting with gradient tolerance ( 0.0100000) satisfied.

> <CHARMm Energy>
42.62455

> <Potential Energy>
42.62455

> <RMS Gradient>
0.00956

> <Bond Energy>
6.34626

> <Angle Energy>
20.67513

> <STRBend>
0.12791

> <Dihedral Energy>
9.01522

> <OOPLane>
0.05734

> <Van der Waals Energy>
61.84533

> <Electrostatic Energy>
-55.44263

> <Hydrogen Bond Energy>
0

> <Solvation Free Energy>
0

> <HasGasteigerCharges>
true

> <REMARK99>
REMARK  99  MacroMolecule created from Mol2 file
REMARK  99  CHEMBL5085291
REMARK  99  PROTEIN
REMARK  99  GASTEIGER
REMARK  99
REMARK  99

$$$$
CHEMBL4852865
  SciTegic05292516403D

 35 37  0  0  0  0            999 V2000
    6.7761   -5.8167   -0.6574 C   0  0
    8.0512   -5.2546   -0.7863 C   0  0
    8.2412   -3.8688   -0.7573 C   0  0
    7.1352   -3.0136   -0.6069 C   0  0
    5.6983   -4.9417   -0.4849 C   0  0
    5.8490   -3.5596   -0.4582 C   0  0
    4.5610   -3.0010   -0.2526 C   0  0
    3.6436   -4.0319   -0.1528 C   0  0
    4.3595   -5.2007   -0.3053 N   0  0
    9.6273   -3.2779   -0.8093 C   0  0
   10.1054   -2.9497    0.6027 C   0  0
   11.4196   -2.2250    0.5753 C   0  0
   11.8516   -1.8993    1.8159 O   0  0
   12.0502   -1.9473   -0.4312 O   0  0
    2.2008   -3.9957    0.0895 C   0  0
    1.6223   -3.0089    0.9039 C   0  0
    0.2473   -2.9713    1.1335 C   0  0
   -0.5701   -3.9294    0.5425 C   0  0
   -0.0230   -4.9163   -0.2750 C   0  0
    1.3560   -4.9480   -0.5025 C   0  0
    2.3822   -2.0756    1.4977 F   0  0
   -2.2690   -3.8940    0.8171 Cl  0  0
    6.6389   -6.8929   -0.6765 H   0  0
    8.9047   -5.9199   -0.9016 H   0  0
    7.2670   -1.9353   -0.5799 H   0  0
    4.3306   -1.9459   -0.1738 H   0  0
    3.9673   -6.1293   -0.2537 H   0  0
   10.3204   -3.9746   -1.2975 H   0  0
    9.6123   -2.3784   -1.4384 H   0  0
    9.3797   -2.3060    1.1138 H   0  0
   10.2264   -3.8719    1.1829 H   0  0
   11.2400   -2.1738    2.5262 H   0  0
   -0.1827   -2.1992    1.7663 H   0  0
   -0.6664   -5.6573   -0.7447 H   0  0
    1.7598   -5.7082   -1.1673 H   0  0
  1  2  2  0
  1 23  1  0
  2  3  1  0
  2 24  1  0
  3  4  2  0
  3 10  1  0
  4  6  1  0
  4 25  1  0
  5  1  1  0
  5  6  2  0
  6  7  1  0
  7  8  2  0
  7 26  1  0
  8  9  1  0
  8 15  1  0
  9  5  1  0
  9 27  1  0
 10 11  1  0
 10 28  1  0
 10 29  1  0
 11 12  1  0
 11 30  1  0
 11 31  1  0
 12 13  1  0
 12 14  2  0
 13 32  1  0
 15 16  2  0
 16 17  1  0
 16 21  1  0
 17 18  2  0
 17 33  1  0
 18 19  1  0
 18 22  1  0
 19 20  2  0
 19 34  1  0
 20 15  1  0
 20 35  1  0
M  END
> <Name>
CHEMBL4852865

> <Clean Energy>
19.4163

> <chembl_id>
CHEMBL4852865

> <chembl_pref_name>
None

> <efficacy>
0.0364

> <Forcefield>
MMFF

> <ForcefieldBase>
MMFF

> <ForcefieldFFML>
<?xml version="1.0" encoding="UTF-8"?>
<!DOCTYPE ffml SYSTEM "Ffml.dtd">
<ffml version="1.0">
<forcefield name="MMFF" derivedFrom="MMFF" base="MMFF">
<atomTypes>
<atomType
name="C100"
element="C"
mass="12.011"
annotation=""/>
<atomType
name="N101"
element="N"
mass="14.007"
annotation=""/>
<atomType
name="O102"
element="O"
mass="16"
annotation=""/>
<atomType
name="F103"
element="F"
mass="18.998"
annotation=""/>
<atomType
name="Cl104"
element="Cl"
mass="35.453"
annotation=""/>
<atomType
name="H105"
element="H"
mass="1.008"
annotation=""/>
</atomTypes>
<parameters>
</parameters>
</forcefield>
</ffml>

> <Initial Potential Energy>
58.11724

> <Initial RMS Gradient>
33.56943

> <Minimization Criteria>
CONJUG> Minimization exiting with gradient tolerance ( 0.0100000) satisfied.

> <CHARMm Energy>
9.36031

> <Potential Energy>
9.36031

> <RMS Gradient>
0.00874

> <Bond Energy>
3.68237

> <Angle Energy>
2.68201

> <STRBend>
-0.59805

> <Dihedral Energy>
-0.98363

> <OOPLane>
0.02358

> <Van der Waals Energy>
35.34611

> <Electrostatic Energy>
-30.79208

> <Hydrogen Bond Energy>
0

> <Solvation Free Energy>
0

> <HasGasteigerCharges>
true

> <REMARK99>
REMARK  99  MacroMolecule created from Mol2 file
REMARK  99  CHEMBL4852865
REMARK  99  PROTEIN
REMARK  99  GASTEIGER
REMARK  99
REMARK  99

$$$$
CHEMBL1090870
  SciTegic05292516403D

 61 65  0  0  0  0            999 V2000
    8.2985  -13.3026   -0.7511 C   0  0
    7.1706  -12.4801   -0.7420 C   0  0
    5.8059  -14.4508   -0.4669 C   0  0
    5.9242  -13.0501   -0.5849 C   0  0
    4.4769  -14.8252   -0.3593 O   0  0
    3.7221  -13.6548   -0.3169 C   0  0
    4.5531  -12.4374   -0.6628 C   0  0  1  0  0  0
    4.1622  -11.3665    0.3666 C   0  0
    2.6828  -11.1538    0.5728 C   0  0
    1.9112  -12.2581    0.4479 C   0  0
    2.4807  -13.5688    0.1826 C   0  0
    0.5452  -12.2887    0.6324 O   0  0
    2.0637   -9.8333    0.9036 C   0  0
    2.9520   -8.6300    1.0726 C   0  0
    0.8376   -9.7379    1.0249 O   0  0
    4.9803  -10.7071    1.0027 O   0  0
    4.2703  -11.9365   -2.0869 C   0  0
    7.2917  -11.1389   -0.9377 O   0  0
    8.1697  -14.6973   -0.6315 C   0  0
    6.9193  -15.2955   -0.5005 C   0  0
    6.8502  -16.7756   -0.5319 C   0  0
    8.0762  -17.4420   -0.6185 N   0  0
    9.2708  -16.7425   -0.2382 C   0  0  1  0  0  0
    9.3338  -15.4027   -0.7281 O   0  0
    5.7476  -17.3117   -0.4666 O   0  0
    8.1520  -18.7666   -1.0242 C   0  0
    9.2130  -19.4801   -0.4983 N   0  0
    7.3925  -19.2344   -1.8668 O   0  0
    9.5515  -20.7927   -0.9921 C   0  0
   10.8175  -21.3142   -0.3547 C   0  0
   10.7459  -22.1384    0.7799 C   0  0
   11.9052  -22.6495    1.3737 C   0  0
   13.1600  -22.3403    0.8493 C   0  0
   13.2463  -21.5074   -0.2716 C   0  0
   12.0840  -20.9870   -0.8716 C   0  0
    9.4028  -16.8247    1.1814 O   0  0
   10.7370  -16.5736    1.6048 C   0  0
   14.5705  -21.1688   -0.8171 N   0  3
   14.6404  -20.1832   -1.5665 O   0  0
   15.5363  -21.8753   -0.4866 O   0  5
    9.2947  -12.8870   -0.8846 H   0  0
    1.9279  -14.4534    0.4827 H   0  0
    0.2195  -11.3780    0.8270 H   0  0
    2.3314   -7.7311    1.1406 H   0  0
    3.6090   -8.5170    0.2066 H   0  0
    3.5313   -8.7209    1.9945 H   0  0
    3.2279  -11.6234   -2.2161 H   0  0
    4.4745  -12.7076   -2.8401 H   0  0
    4.8934  -11.0673   -2.3279 H   0  0
    8.2459  -10.9436   -0.9580 H   0  0
   10.1283  -17.2483   -0.6991 H   0  0
    9.4805  -19.2318    0.4460 H   0  0
    8.7092  -21.4652   -0.7912 H   0  0
    9.6636  -20.7437   -2.0817 H   0  0
    9.7785  -22.4067    1.2040 H   0  0
   11.8251  -23.2962    2.2452 H   0  0
   14.0508  -22.7503    1.3212 H   0  0
   12.1566  -20.3449   -1.7482 H   0  0
   10.7657  -16.6293    2.6961 H   0  0
   11.0606  -15.5741    1.2996 H   0  0
   11.4169  -17.3308    1.2021 H   0  0
  1  2  2  0
  1 41  1  0
  2  4  1  0
  2 18  1  0
  3  4  2  0
  3 20  1  0
  4  7  1  0
  5  3  1  0
  6  5  1  0
  6  7  1  0
  7  8  1  0
  7 17  1  0
  8  9  1  0
  8 16  2  0
  9 10  2  0
  9 13  1  0
 10 11  1  0
 10 12  1  0
 11  6  2  0
 11 42  1  0
 12 43  1  0
 13 14  1  0
 13 15  2  0
 14 44  1  0
 14 45  1  0
 14 46  1  0
 17 47  1  0
 17 48  1  0
 17 49  1  0
 18 50  1  0
 19  1  1  0
 19 20  2  0
 19 24  1  0
 20 21  1  0
 21 22  1  0
 21 25  2  0
 22 23  1  0
 22 26  1  0
 23 24  1  0
 23 36  1  0
 23 51  1  0
 26 27  1  0
 26 28  2  0
 27 29  1  0
 27 52  1  0
 29 30  1  0
 29 53  1  0
 29 54  1  0
 30 31  2  0
 31 32  1  0
 31 55  1  0
 32 33  2  0
 32 56  1  0
 33 34  1  0
 33 57  1  0
 34 35  2  0
 34 38  1  0
 35 30  1  0
 35 58  1  0
 36 37  1  0
 37 59  1  0
 37 60  1  0
 37 61  1  0
 38 39  2  0
 38 40  1  0
M  CHG  2  38   1  40  -1
M  END
> <Name>
CHEMBL1090870

> <Clean Energy>
67.819901

> <chembl_id>
CHEMBL1090870

> <chembl_pref_name>
None

> <efficacy>
0.357894737

> <Forcefield>
MMFF

> <ForcefieldBase>
MMFF

> <ForcefieldFFML>
<?xml version="1.0" encoding="UTF-8"?>
<!DOCTYPE ffml SYSTEM "Ffml.dtd">
<ffml version="1.0">
<forcefield name="MMFF" derivedFrom="MMFF" base="MMFF">
<atomTypes>
<atomType
name="C100"
element="C"
mass="12.011"
annotation=""/>
<atomType
name="O101"
element="O"
mass="16"
annotation=""/>
<atomType
name="N102"
element="N"
mass="14.007"
annotation=""/>
<atomType
name="H103"
element="H"
mass="1.008"
annotation=""/>
</atomTypes>
<parameters>
</parameters>
</forcefield>
</ffml>

> <Initial Potential Energy>
81.62121

> <Initial RMS Gradient>
31.03311

> <Minimization Criteria>
STEEPD> Minimization exiting with gradient tolerance ( 3.0000000) satisfied.

> <CHARMm Energy>
-19.80996

> <Potential Energy>
-19.80996

> <RMS Gradient>
0.05552

> <Bond Energy>
8.14032

> <Angle Energy>
30.19451

> <STRBend>
0.57298

> <Dihedral Energy>
18.87203

> <OOPLane>
0.97039

> <Van der Waals Energy>
74.51745

> <Electrostatic Energy>
-153.07764

> <Hydrogen Bond Energy>
0

> <Solvation Free Energy>
0

> <HasGasteigerCharges>
true

> <REMARK99>
REMARK  99  MacroMolecule created from Mol2 file
REMARK  99  CHEMBL1090870
REMARK  99  PROTEIN
REMARK  99  GASTEIGER
REMARK  99
REMARK  99

$$$$
CHEMBL1075723
  SciTegic05292516403D

 72 75  0  0  0  0            999 V2000
   -9.8324    4.5610    0.7582 C   0  0
   -9.7282    3.2459    1.2034 C   0  0
   -8.4937    2.6039    1.1587 C   0  0
   -7.3647    3.2646    0.6691 C   0  0
   -7.4720    4.6032    0.2721 C   0  0
   -8.7056    5.2738    0.3352 C   0  0
   -8.8089    6.7096   -0.0935 C   0  0
  -11.0617    5.1655    0.7513 O   0  0
  -11.7601    4.7901   -0.4324 C   0  0
  -13.0142    5.6136   -0.6804 C   0  0
  -13.5229    5.4097   -1.9301 O   0  0
  -13.5677    6.3591    0.1140 O   0  0
   -6.2228    2.5050    0.6374 O   0  0
   -5.1148    3.0866   -0.0637 C   0  0
   -3.9096    2.1769   -0.0245 C   0  0
   -4.0337    0.4700    0.1542 S   0  0
   -2.3191    0.3245    0.1061 C   0  0
   -1.7583    1.5747   -0.1159 C   0  0
   -2.6725    2.6233   -0.1679 N   0  0
   -0.3223    1.8179   -0.2489 C   0  0
    0.4517    1.1105   -1.1829 C   0  0
    1.6948    2.9642    0.4955 C   0  0
    0.3079    2.7638    0.5710 C   0  0
   -1.6934   -0.9783    0.3374 C   0  0
   -1.8411   -2.0319   -0.5722 C   0  0
   -1.2075   -3.2650   -0.3525 C   0  0
   -0.4241   -3.4615    0.7851 C   0  0
   -0.2825   -2.4116    1.6970 C   0  0
   -0.9061   -1.1800    1.4758 C   0  0
    0.2418   -4.6017    1.1332 O   0  0
    0.2216   -5.6918    0.2265 C   0  0
    0.9078   -6.7249    0.7659 F   0  0
   -1.0424   -6.1158   -0.0005 F   0  0
    0.8032   -5.3582   -0.9451 F   0  0
    2.4636    2.2218   -0.4059 C   0  0
    1.8363    1.3146   -1.2671 C   0  0
    3.9415    2.4185   -0.4550 C   0  0
    4.7716    1.2988   -0.2787 N   0  0
    4.3690    3.5544   -0.6573 O   0  0
    4.2872    0.0323    0.2685 C   0  0
    6.2170    1.4522   -0.5320 C   0  0
    6.8353    0.2348   -1.2210 C   0  0
    6.9646    1.7950    0.7577 C   0  0
  -10.5980    2.7159    1.5789 H   0  0
   -8.4200    1.5747    1.4991 H   0  0
   -6.6154    5.1662   -0.0848 H   0  0
   -9.2514    6.7730   -1.0923 H   0  0
   -7.8243    7.1878   -0.1222 H   0  0
   -9.4230    7.2806    0.6105 H   0  0
  -11.1118    4.9222   -1.3090 H   0  0
  -12.0772    3.7426   -0.3578 H   0  0
  -12.9543    4.8238   -2.4702 H   0  0
   -5.3812    3.2628   -1.1129 H   0  0
   -4.8206    4.0281    0.4160 H   0  0
   -0.0126    0.3930   -1.8565 H   0  0
    2.1744    3.6874    1.1490 H   0  0
   -0.2788    3.3409    1.2830 H   0  0
   -2.4457   -1.9026   -1.4680 H   0  0
   -1.3593   -4.0438   -1.0944 H   0  0
    0.3171   -2.5475    2.5942 H   0  0
   -0.7711   -0.3823    2.2033 H   0  0
    2.4185    0.7636   -2.0012 H   0  0
    4.9946   -0.3392    1.0151 H   0  0
    4.2035   -0.6921   -0.5465 H   0  0
    3.3185    0.1382    0.7614 H   0  0
    6.3460    2.3018   -1.2142 H   0  0
    7.8791    0.4318   -1.4877 H   0  0
    6.2920   -0.0072   -2.1406 H   0  0
    6.8198   -0.6519   -0.5787 H   0  0
    8.0238    1.9839    0.5539 H   0  0
    6.9014    0.9827    1.4892 H   0  0
    6.5458    2.6930    1.2245 H   0  0
  1  2  2  0
  1  8  1  0
  2  3  1  0
  2 44  1  0
  3  4  2  0
  3 45  1  0
  4  5  1  0
  4 13  1  0
  5  6  2  0
  5 46  1  0
  6  1  1  0
  6  7  1  0
  7 47  1  0
  7 48  1  0
  7 49  1  0
  8  9  1  0
  9 10  1  0
  9 50  1  0
  9 51  1  0
 10 11  1  0
 10 12  2  0
 11 52  1  0
 13 14  1  0
 14 15  1  0
 14 53  1  0
 14 54  1  0
 15 16  1  0
 16 17  1  0
 17 18  2  0
 17 24  1  0
 18 19  1  0
 18 20  1  0
 19 15  2  0
 20 21  2  0
 21 36  1  0
 21 55  1  0
 22 23  2  0
 22 56  1  0
 23 20  1  0
 23 57  1  0
 24 25  2  0
 25 26  1  0
 25 58  1  0
 26 27  2  0
 26 59  1  0
 27 28  1  0
 27 30  1  0
 28 29  2  0
 28 60  1  0
 29 24  1  0
 29 61  1  0
 30 31  1  0
 31 32  1  0
 31 33  1  0
 31 34  1  0
 35 22  1  0
 35 36  2  0
 35 37  1  0
 36 62  1  0
 37 38  1  0
 37 39  2  0
 38 40  1  0
 38 41  1  0
 40 63  1  0
 40 64  1  0
 40 65  1  0
 41 42  1  0
 41 43  1  0
 41 66  1  0
 42 67  1  0
 42 68  1  0
 42 69  1  0
 43 70  1  0
 43 71  1  0
 43 72  1  0
M  END
> <Name>
CHEMBL1075723

> <Clean Energy>
67.538696

> <chembl_id>
CHEMBL1075723

> <chembl_pref_name>
None

> <efficacy>
0.32

> <Forcefield>
MMFF

> <ForcefieldBase>
MMFF

> <ForcefieldFFML>
<?xml version="1.0" encoding="UTF-8"?>
<!DOCTYPE ffml SYSTEM "Ffml.dtd">
<ffml version="1.0">
<forcefield name="MMFF" derivedFrom="MMFF" base="MMFF">
<atomTypes>
<atomType
name="C100"
element="C"
mass="12.011"
annotation=""/>
<atomType
name="O101"
element="O"
mass="16"
annotation=""/>
<atomType
name="S102"
element="S"
mass="32.066"
annotation=""/>
<atomType
name="N103"
element="N"
mass="14.007"
annotation=""/>
<atomType
name="F104"
element="F"
mass="18.998"
annotation=""/>
<atomType
name="H105"
element="H"
mass="1.008"
annotation=""/>
</atomTypes>
<parameters>
</parameters>
</forcefield>
</ffml>

> <Initial Potential Energy>
684.48227

> <Initial RMS Gradient>
242.89865

> <Minimization Criteria>
STEEPD> Minimization exiting with gradient tolerance ( 3.0000000) satisfied.

> <CHARMm Energy>
111.22842

> <Potential Energy>
111.22842

> <RMS Gradient>
0.08334

> <Bond Energy>
8.46771

> <Angle Energy>
25.20376

> <STRBend>
0.45375

> <Dihedral Energy>
18.87745

> <OOPLane>
0.10361

> <Van der Waals Energy>
75.77682

> <Electrostatic Energy>
-17.65467

> <Hydrogen Bond Energy>
0

> <Solvation Free Energy>
0

> <HasGasteigerCharges>
true

> <REMARK99>
REMARK  99  MacroMolecule created from Mol2 file
REMARK  99  CHEMBL1075723
REMARK  99  PROTEIN
REMARK  99  GASTEIGER
REMARK  99
REMARK  99

$$$$
CHEMBL2338475
  SciTegic05292516403D

 48 51  0  0  0  0            999 V2000
   24.3508  -20.1658    0.2243 C   0  0
   23.5795  -20.8131   -0.7430 C   0  0
   22.6573  -20.0909   -1.5064 C   0  0
   22.4140  -18.7467   -1.2188 C   0  0
   23.0921  -18.1192   -0.1733 C   0  0
   24.0830  -18.8220    0.5200 C   0  0
   21.6468  -15.7694   -0.3196 S   0  0
   22.7650  -16.8323    0.3275 N   0  0
   20.0606  -16.5003   -0.0097 C   0  0
   18.9380  -16.0954   -0.7387 C   0  0
   17.7044  -16.7178   -0.5091 C   0  0
   17.5918  -17.7213    0.4506 C   0  0
   18.6991  -18.1071    1.1997 C   0  0
   19.9328  -17.4928    0.9769 C   0  0
   23.6442  -22.1763   -0.9123 O   0  0
   21.8393  -22.5016    0.7202 C   0  0
   22.5891  -22.8898   -0.3835 C   0  0
   22.2650  -24.0971   -0.9910 C   0  0
   20.7852  -23.1937    1.2054 N   0  0
   21.8832  -15.7051   -1.7452 O   0  0
   21.7179  -14.5896    0.5166 O   0  0
   18.9501  -14.8166   -1.8984 Cl  0  0
   21.1841  -24.8519   -0.5078 C   0  0
   20.4612  -24.3441    0.5975 C   0  0
   19.3748  -25.0609    1.0745 C   0  0
   18.9876  -26.2645    0.4918 C   0  0
   19.7025  -26.7648   -0.5910 C   0  0
   20.8036  -26.0730   -1.0900 C   0  0
   16.0729  -18.4800    0.7210 Cl  0  0
   25.3744  -20.8582    1.0454 C   0  0
   25.5339  -20.5032    2.2116 O   0  0
   26.1957  -21.9601    0.4321 C   0  0
   22.0834  -20.5857   -2.2873 H   0  0
   21.6626  -18.2320   -1.8104 H   0  0
   24.6355  -18.3360    1.3241 H   0  0
   23.3172  -16.4280    1.0827 H   0  0
   16.8262  -16.4094   -1.0720 H   0  0
   18.6085  -18.8815    1.9588 H   0  0
   20.7789  -17.7963    1.5883 H   0  0
   22.0531  -21.5960    1.2788 H   0  0
   22.8397  -24.4360   -1.8477 H   0  0
   18.8178  -24.6527    1.9147 H   0  0
   18.1397  -26.8234    0.8856 H   0  0
   19.4073  -27.7069   -1.0447 H   0  0
   21.3515  -26.5084   -1.9262 H   0  0
   25.7522  -22.9296    0.6710 H   0  0
   27.2091  -21.9145    0.8424 H   0  0
   26.2800  -21.8372   -0.6509 H   0  0
  1  2  1  0
  1  6  2  0
  1 30  1  0
  2  3  2  0
  2 15  1  0
  3  4  1  0
  3 33  1  0
  4  5  2  0
  4 34  1  0
  5  6  1  0
  5  8  1  0
  6 35  1  0
  7  8  1  0
  7  9  1  0
  7 20  2  0
  7 21  2  0
  8 36  1  0
  9 10  1  0
  9 14  2  0
 10 11  2  0
 10 22  1  0
 11 12  1  0
 11 37  1  0
 12 13  2  0
 12 29  1  0
 13 14  1  0
 13 38  1  0
 14 39  1  0
 15 17  1  0
 16 17  1  0
 16 19  2  0
 16 40  1  0
 17 18  2  0
 18 23  1  0
 18 41  1  0
 23 24  1  0
 24 19  1  0
 24 25  2  0
 25 26  1  0
 25 42  1  0
 26 27  2  0
 26 43  1  0
 27 28  1  0
 27 44  1  0
 28 23  2  0
 28 45  1  0
 30 31  2  0
 30 32  1  0
 32 46  1  0
 32 47  1  0
 32 48  1  0
M  END
> <Name>
CHEMBL2338475

> <Clean Energy>
30.830099

> <chembl_id>
CHEMBL2338475

> <chembl_pref_name>
None

> <efficacy>
0.42

> <Forcefield>
MMFF

> <ForcefieldBase>
MMFF

> <ForcefieldFFML>
<?xml version="1.0" encoding="UTF-8"?>
<!DOCTYPE ffml SYSTEM "Ffml.dtd">
<ffml version="1.0">
<forcefield name="MMFF" derivedFrom="MMFF" base="MMFF">
<atomTypes>
<atomType
name="C100"
element="C"
mass="12.011"
annotation=""/>
<atomType
name="S101"
element="S"
mass="32.066"
annotation=""/>
<atomType
name="N102"
element="N"
mass="14.007"
annotation=""/>
<atomType
name="O103"
element="O"
mass="16"
annotation=""/>
<atomType
name="Cl104"
element="Cl"
mass="35.453"
annotation=""/>
<atomType
name="H105"
element="H"
mass="1.008"
annotation=""/>
</atomTypes>
<parameters>
</parameters>
</forcefield>
</ffml>

> <Initial Potential Energy>
628.07784

> <Initial RMS Gradient>
266.55978

> <Minimization Criteria>
CONJUG> Minimization exiting with gradient tolerance ( 0.0100000) satisfied.

> <CHARMm Energy>
34.20634

> <Potential Energy>
34.20634

> <RMS Gradient>
0.00941

> <Bond Energy>
5.55695

> <Angle Energy>
18.58859

> <STRBend>
0.66478

> <Dihedral Energy>
7.7642

> <OOPLane>
0.16027

> <Van der Waals Energy>
69.61347

> <Electrostatic Energy>
-68.14193

> <Hydrogen Bond Energy>
0

> <Solvation Free Energy>
0

> <HasGasteigerCharges>
true

> <REMARK99>
REMARK  99  MacroMolecule created from Mol2 file
REMARK  99  CHEMBL2338475
REMARK  99  PROTEIN
REMARK  99  GASTEIGER
REMARK  99
REMARK  99

$$$$
CHEMBL486205
  SciTegic05292516403D

 32 33  0  0  0  0            999 V2000
    6.2386    2.6241   -0.2765 C   0  0
    6.2337    1.6608   -1.2786 C   0  0
    7.3805    0.9175   -1.5452 C   0  0
    8.5490    1.1423   -0.8093 C   0  0
    8.5792    2.1187    0.1905 C   0  0
    7.4068    2.8469    0.4570 C   0  0
    9.6680    2.3960    0.9686 O   0  0
    4.8031    1.3770   -2.1896 Cl  0  0
   10.9770    2.0115    0.5273 C   0  0  1  0  0  0
   11.9457    3.1333    0.9323 C   0  0
   11.3620    0.7072    1.2401 C   0  0
   12.5624    0.0224    0.6323 C   0  0
   13.8130    0.0979    1.2614 C   0  0
   14.9339   -0.4950    0.6800 C   0  0
   14.8141   -1.1729   -0.5308 C   0  0
   13.5739   -1.2656   -1.1583 C   0  0
   12.4518   -0.6722   -0.5796 C   0  0
   13.1382    3.0937    0.2840 O   0  0
   11.7059    4.0112    1.7492 O   0  0
    7.3533    4.1725    1.8182 Br  0  0
    5.3383    3.1959   -0.0673 H   0  0
    7.3701    0.1551   -2.3206 H   0  0
    9.4088    0.5224   -1.0329 H   0  0
   11.0181    1.9486   -0.5666 H   0  0
   11.5410    0.9013    2.3065 H   0  0
   10.5209    0.0017    1.2258 H   0  0
   13.9268    0.6261    2.2072 H   0  0
   15.9011   -0.4310    1.1741 H   0  0
   15.6860   -1.6393   -0.9814 H   0  0
   13.4819   -1.8092   -2.0956 H   0  0
   11.4920   -0.7705   -1.0807 H   0  0
   13.2623    2.3337   -0.3189 H   0  0
  1  2  2  0
  1 21  1  0
  2  3  1  0
  2  8  1  0
  3  4  2  0
  3 22  1  0
  4  5  1  0
  4 23  1  0
  5  6  2  0
  5  7  1  0
  6  1  1  0
  6 20  1  0
  7  9  1  0
  9 10  1  0
  9 11  1  0
  9 24  1  0
 10 18  1  0
 10 19  2  0
 11 12  1  0
 11 25  1  0
 11 26  1  0
 12 13  2  0
 13 14  1  0
 13 27  1  0
 14 15  2  0
 14 28  1  0
 15 16  1  0
 15 29  1  0
 16 17  2  0
 16 30  1  0
 17 12  1  0
 17 31  1  0
 18 32  1  0
M  END
> <Name>
CHEMBL486205

> <Clean Energy>
12.1354

> <chembl_id>
CHEMBL486205

> <chembl_pref_name>
None

> <efficacy>
0.18

> <Forcefield>
MMFF

> <ForcefieldBase>
MMFF

> <ForcefieldFFML>
<?xml version="1.0" encoding="UTF-8"?>
<!DOCTYPE ffml SYSTEM "Ffml.dtd">
<ffml version="1.0">
<forcefield name="MMFF" derivedFrom="MMFF" base="MMFF">
<atomTypes>
<atomType
name="C100"
element="C"
mass="12.011"
annotation=""/>
<atomType
name="O101"
element="O"
mass="16"
annotation=""/>
<atomType
name="Cl102"
element="Cl"
mass="35.453"
annotation=""/>
<atomType
name="Br103"
element="Br"
mass="79.904"
annotation=""/>
<atomType
name="H104"
element="H"
mass="1.008"
annotation=""/>
</atomTypes>
<parameters>
</parameters>
</forcefield>
</ffml>

> <Initial Potential Energy>
115.74801

> <Initial RMS Gradient>
31.84389

> <Minimization Criteria>
STEEPD> Minimization exiting with gradient tolerance ( 3.0000000) satisfied.

> <CHARMm Energy>
60.52654

> <Potential Energy>
60.52654

> <RMS Gradient>
0.10176

> <Bond Energy>
3.6376

> <Angle Energy>
9.9394

> <STRBend>
0.38834

> <Dihedral Energy>
-0.33916

> <OOPLane>
0.01912

> <Van der Waals Energy>
37.93409

> <Electrostatic Energy>
8.94715

> <Hydrogen Bond Energy>
0

> <Solvation Free Energy>
0

> <HasGasteigerCharges>
true

> <REMARK99>
REMARK  99  MacroMolecule created from Mol2 file
REMARK  99  CHEMBL486205
REMARK  99  PROTEIN
REMARK  99  GASTEIGER
REMARK  99
REMARK  99

$$$$
CHEMBL3425533
  SciTegic05292516403D

 45 46  0  0  0  0            999 V2000
    0.8995    0.3050    1.2274 C   0  0
    1.0548    1.3134    0.2707 C   0  0
    0.0825    1.4538   -0.7192 C   0  0
   -1.0261    0.5906   -0.7527 C   0  0
   -1.1851   -0.4176    0.2110 C   0  0
   -0.2065   -0.5542    1.2024 C   0  0
    2.1866    2.0708    0.4181 O   0  0
    2.4225    3.1222   -0.5242 C   0  0
    3.8001    3.7261   -0.3013 C   0  0
   -2.3726   -1.3642    0.1893 C   0  0  2  0  0  0
   -2.1483   -2.4664   -0.8449 C   0  0
   -3.5870   -0.6715   -0.1821 O   0  0
   -4.0932    0.1478    0.8794 C   0  0
   -5.3662    0.8115    0.3925 C   0  0
   -3.2274   -3.5137   -0.7485 C   0  0
   -4.4809   -3.0205   -0.8869 O   0  0
   -3.0143   -4.7091   -0.6045 O   0  0
    4.0008    5.1114   -0.3562 C   0  0
    5.2861    5.6535   -0.2096 C   0  0
    6.4000    4.8242   -0.0069 C   0  0
    6.1985    3.4363    0.0342 C   0  0
    4.9154    2.8959   -0.1125 C   0  0
    7.7872    5.4194    0.1186 C   0  0
    7.8023    6.6068    0.7896 F   0  0
    8.6642    4.6118    0.7796 F   0  0
    8.3572    5.6738   -1.0931 F   0  0
    1.6521    0.1851    2.0041 H   0  0
    0.1520    2.2213   -1.4830 H   0  0
   -1.7732    0.7166   -1.5357 H   0  0
   -0.2902   -1.3287    1.9630 H   0  0
    2.3951    2.7368   -1.5508 H   0  0
    1.6537    3.8936   -0.3962 H   0  0
   -2.5228   -1.8156    1.1792 H   0  0
   -2.1547   -2.0786   -1.8705 H   0  0
   -1.1838   -2.9615   -0.6801 H   0  0
   -4.3120   -0.4769    1.7520 H   0  0
   -3.3627    0.9139    1.1576 H   0  0
   -6.1049    0.0590    0.0971 H   0  0
   -5.1660    1.4258   -0.4915 H   0  0
   -5.7990    1.4446    1.1720 H   0  0
   -4.4736   -2.0347   -0.9355 H   0  0
    3.1711    5.7968   -0.5180 H   0  0
    5.4178    6.7350   -0.2592 H   0  0
    7.0425    2.7633    0.1779 H   0  0
    4.7797    1.8140   -0.0821 H   0  0
  1  2  2  0
  1 27  1  0
  2  3  1  0
  2  7  1  0
  3  4  2  0
  3 28  1  0
  4  5  1  0
  4 29  1  0
  5  6  2  0
  5 10  1  0
  6  1  1  0
  6 30  1  0
  7  8  1  0
  8  9  1  0
  8 31  1  0
  8 32  1  0
  9 18  2  0
 10 11  1  0
 10 12  1  0
 10 33  1  0
 11 15  1  0
 11 34  1  0
 11 35  1  0
 12 13  1  0
 13 14  1  0
 13 36  1  0
 13 37  1  0
 14 38  1  0
 14 39  1  0
 14 40  1  0
 15 16  1  0
 15 17  2  0
 16 41  1  0
 18 19  1  0
 18 42  1  0
 19 20  2  0
 19 43  1  0
 20 21  1  0
 20 23  1  0
 21 22  2  0
 21 44  1  0
 22  9  1  0
 22 45  1  0
 23 24  1  0
 23 25  1  0
 23 26  1  0
M  END
> <Name>
CHEMBL3425533

> <Clean Energy>
27.2094

> <chembl_id>
CHEMBL3425533

> <chembl_pref_name>
None

> <efficacy>
0.113

> <Forcefield>
MMFF

> <ForcefieldBase>
MMFF

> <ForcefieldFFML>
<?xml version="1.0" encoding="UTF-8"?>
<!DOCTYPE ffml SYSTEM "Ffml.dtd">
<ffml version="1.0">
<forcefield name="MMFF" derivedFrom="MMFF" base="MMFF">
<atomTypes>
<atomType
name="C100"
element="C"
mass="12.011"
annotation=""/>
<atomType
name="O101"
element="O"
mass="16"
annotation=""/>
<atomType
name="F102"
element="F"
mass="18.998"
annotation=""/>
<atomType
name="H103"
element="H"
mass="1.008"
annotation=""/>
</atomTypes>
<parameters>
</parameters>
</forcefield>
</ffml>

> <Initial Potential Energy>
134.14543

> <Initial RMS Gradient>
28.44062

> <Minimization Criteria>
STEEPD> Minimization exiting with gradient tolerance ( 3.0000000) satisfied.

> <CHARMm Energy>
45.72562

> <Potential Energy>
45.72562

> <RMS Gradient>
0.01801

> <Bond Energy>
5.25626

> <Angle Energy>
9.90496

> <STRBend>
0.3323

> <Dihedral Energy>
-1.63681

> <OOPLane>
0.07654

> <Van der Waals Energy>
45.55141

> <Electrostatic Energy>
-13.75903

> <Hydrogen Bond Energy>
0

> <Solvation Free Energy>
0

> <HasGasteigerCharges>
true

> <REMARK99>
REMARK  99  MacroMolecule created from Mol2 file
REMARK  99  CHEMBL3425533
REMARK  99  PROTEIN
REMARK  99  GASTEIGER
REMARK  99
REMARK  99

$$$$
CHEMBL3947936
  SciTegic05292516403D

 50 53  0  0  0  0            999 V2000
   16.2070  -11.1574    0.0340 C   0  0
   16.1735   -9.7601   -0.0524 C   0  0
   17.2409   -9.0102    0.4484 C   0  0
   18.3486   -9.6371    1.0275 C   0  0
   18.3853  -11.0231    1.1261 C   0  0
   17.3200  -11.7764    0.6322 C   0  0
   15.1122  -11.9690   -0.4951 C   0  0
   15.3013  -12.7692   -1.6305 C   0  0
   14.2905  -13.6200   -2.0786 C   0  0
   13.0754  -13.6993   -1.3857 C   0  0
   12.8574  -12.8466   -0.2941 C   0  0
   13.8690  -11.9956    0.1495 C   0  0
   17.2678   -7.5455    0.3043 C   0  0
   18.2486   -6.9527   -0.1086 O   0  0
   16.1401   -6.9283    0.7136 O   0  0
   12.0476  -14.7339   -1.7736 C   0  0
   12.5420  -16.3997    0.0778 C   0  0
   11.6867  -15.5852   -0.6446 N   0  0
   10.4247  -15.6967   -0.0983 C   0  0
   10.5984  -16.5560    0.9824 C   0  0
   11.9012  -16.9685    1.0793 N   0  0
    9.5026  -16.8774    1.7957 C   0  0
    8.2508  -16.3315    1.4902 C   0  0
    8.0922  -15.4833    0.3945 C   0  0
    9.1780  -15.1411   -0.4213 C   0  0
   14.0022  -16.5639   -0.2193 C   0  0
   14.5688  -17.8657    0.3518 C   0  0
   16.0431  -18.0232    0.0131 C   0  0
   15.3450   -9.2654   -0.5548 H   0  0
   19.1857   -9.0474    1.3916 H   0  0
   19.2426  -11.5185    1.5748 H   0  0
   17.3665  -12.8618    0.7089 H   0  0
   16.2538  -12.7505   -2.1586 H   0  0
   14.4814  -14.2535   -2.9425 H   0  0
   11.9184  -12.8794    0.2567 H   0  0
   13.6949  -11.3865    1.0342 H   0  0
   15.4835   -7.5345    1.1104 H   0  0
   11.1528  -14.2329   -2.1542 H   0  0
   12.4142  -15.4020   -2.5615 H   0  0
    9.6295  -17.5515    2.6364 H   0  0
    7.3923  -16.5842    2.1086 H   0  0
    7.1027  -15.0894    0.1674 H   0  0
    9.0394  -14.4773   -1.2673 H   0  0
   14.1639  -16.5604   -1.3030 H   0  0
   14.5486  -15.7155    0.2082 H   0  0
   14.4493  -17.8851    1.4420 H   0  0
   14.0137  -18.7242   -0.0460 H   0  0
   16.4306  -18.9572    0.4319 H   0  0
   16.6305  -17.1961    0.4249 H   0  0
   16.1963  -18.0479   -1.0706 H   0  0
  1  2  1  0
  1  6  2  0
  1  7  1  0
  2  3  2  0
  2 29  1  0
  3  4  1  0
  3 13  1  0
  4  5  2  0
  4 30  1  0
  5  6  1  0
  5 31  1  0
  6 32  1  0
  7  8  1  0
  7 12  2  0
  8  9  2  0
  8 33  1  0
  9 10  1  0
  9 34  1  0
 10 11  2  0
 10 16  1  0
 11 12  1  0
 11 35  1  0
 12 36  1  0
 13 14  2  0
 13 15  1  0
 15 37  1  0
 16 18  1  0
 16 38  1  0
 16 39  1  0
 17 18  1  0
 17 21  2  0
 17 26  1  0
 18 19  1  0
 19 20  1  0
 19 25  2  0
 20 21  1  0
 20 22  2  0
 22 23  1  0
 22 40  1  0
 23 24  2  0
 23 41  1  0
 24 25  1  0
 24 42  1  0
 25 43  1  0
 26 27  1  0
 26 44  1  0
 26 45  1  0
 27 28  1  0
 27 46  1  0
 27 47  1  0
 28 48  1  0
 28 49  1  0
 28 50  1  0
M  END
> <Name>
CHEMBL3947936

> <Clean Energy>
39.338699

> <chembl_id>
CHEMBL3947936

> <chembl_pref_name>
None

> <efficacy>
0.424501425

> <Forcefield>
MMFF

> <ForcefieldBase>
MMFF

> <ForcefieldFFML>
<?xml version="1.0" encoding="UTF-8"?>
<!DOCTYPE ffml SYSTEM "Ffml.dtd">
<ffml version="1.0">
<forcefield name="MMFF" derivedFrom="MMFF" base="MMFF">
<atomTypes>
<atomType
name="C100"
element="C"
mass="12.011"
annotation=""/>
<atomType
name="O101"
element="O"
mass="16"
annotation=""/>
<atomType
name="N102"
element="N"
mass="14.007"
annotation=""/>
<atomType
name="H103"
element="H"
mass="1.008"
annotation=""/>
</atomTypes>
<parameters>
</parameters>
</forcefield>
</ffml>

> <Initial Potential Energy>
187.11743

> <Initial RMS Gradient>
33.58097

> <Minimization Criteria>
STEEPD> Minimization exiting with gradient tolerance ( 3.0000000) satisfied.

> <CHARMm Energy>
60.70435

> <Potential Energy>
60.70435

> <RMS Gradient>
0.04273

> <Bond Energy>
5.69424

> <Angle Energy>
6.57881

> <STRBend>
-0.4612

> <Dihedral Energy>
7.35062

> <OOPLane>
0.12691

> <Van der Waals Energy>
53.44278

> <Electrostatic Energy>
-12.0278

> <Hydrogen Bond Energy>
0

> <Solvation Free Energy>
0

> <HasGasteigerCharges>
true

> <REMARK99>
REMARK  99  MacroMolecule created from Mol2 file
REMARK  99  CHEMBL3947936
REMARK  99  PROTEIN
REMARK  99  GASTEIGER
REMARK  99
REMARK  99

$$$$
CHEMBL4745294
  SciTegic05292516403D

 35 37  0  0  0  0            999 V2000
    7.8479   -8.0094    0.5681 C   0  0
    9.3220   -7.6876    0.6416 C   0  0
   10.1736   -8.0342   -0.4155 C   0  0
   11.5106   -7.6363   -0.4021 C   0  0
   12.0167   -6.8840    0.6617 C   0  0
   11.1826   -6.5838    1.7421 C   0  0
    9.8431   -6.9789    1.7330 C   0  0
   13.3449   -6.4280    0.6307 N   0  0
   13.3685   -5.2955    0.0981 N   0  0
   14.6840   -4.8313   -0.0593 C   0  0
   15.6185   -5.5264   -0.8398 C   0  0
   16.8964   -5.0084   -1.0411 C   0  0
   17.2439   -3.7867   -0.4652 C   0  0
   16.3190   -3.0779    0.3019 C   0  0
   15.0424   -3.6005    0.5011 C   0  0
    6.9894   -6.7819    0.2462 C   0  0  1  0  0  0
    7.3025   -6.0756   -1.4137 S   0  0
    5.6393   -6.2292   -1.9008 C   0  0
    4.9050   -6.8017   -0.9178 N   0  0
    5.5287   -7.1574    0.2389 C   0  0
    4.9487   -7.7156    1.1617 O   0  0
    5.2018   -5.8785   -2.9838 O   0  0
   18.8207   -3.1446   -0.7106 Cl  0  0
    7.6694   -8.8105   -0.1622 H   0  0
    7.5443   -8.4350    1.5342 H   0  0
    9.7983   -8.5830   -1.2763 H   0  0
   12.1562   -7.8811   -1.2412 H   0  0
   11.5748   -6.0117    2.5786 H   0  0
    9.2088   -6.7048    2.5726 H   0  0
   15.3233   -6.4671   -1.2997 H   0  0
   17.6139   -5.5544   -1.6482 H   0  0
   16.5885   -2.1204    0.7404 H   0  0
   14.3042   -3.0511    1.0814 H   0  0
    7.1293   -5.9858    0.9857 H   0  0
    3.9202   -6.9783   -1.0555 H   0  0
  1  2  1  0
  1 16  1  0
  1 24  1  0
  1 25  1  0
  2  3  2  0
  3  4  1  0
  3 26  1  0
  4  5  2  0
  4 27  1  0
  5  6  1  0
  5  8  1  0
  6  7  2  0
  6 28  1  0
  7  2  1  0
  7 29  1  0
  8  9  2  0
  9 10  1  0
 10 11  2  0
 11 12  1  0
 11 30  1  0
 12 13  2  0
 12 31  1  0
 13 14  1  0
 13 23  1  0
 14 15  2  0
 14 32  1  0
 15 10  1  0
 15 33  1  0
 16 17  1  0
 16 34  1  0
 17 18  1  0
 18 19  1  0
 18 22  2  0
 19 20  1  0
 19 35  1  0
 20 16  1  0
 20 21  2  0
M  END
> <Name>
CHEMBL4745294

> <Clean Energy>
22.4767

> <chembl_id>
CHEMBL4745294

> <chembl_pref_name>
None

> <efficacy>
0.237416904

> <Forcefield>
MMFF

> <ForcefieldBase>
MMFF

> <ForcefieldFFML>
<?xml version="1.0" encoding="UTF-8"?>
<!DOCTYPE ffml SYSTEM "Ffml.dtd">
<ffml version="1.0">
<forcefield name="MMFF" derivedFrom="MMFF" base="MMFF">
<atomTypes>
<atomType
name="C100"
element="C"
mass="12.011"
annotation=""/>
<atomType
name="N101"
element="N"
mass="14.007"
annotation=""/>
<atomType
name="S102"
element="S"
mass="32.066"
annotation=""/>
<atomType
name="O103"
element="O"
mass="16"
annotation=""/>
<atomType
name="Cl104"
element="Cl"
mass="35.453"
annotation=""/>
<atomType
name="H105"
element="H"
mass="1.008"
annotation=""/>
</atomTypes>
<parameters>
</parameters>
</forcefield>
</ffml>

> <Initial Potential Energy>
34.30587

> <Initial RMS Gradient>
32.44064

> <Minimization Criteria>
CONJUG> Minimization exiting with gradient tolerance ( 0.0100000) satisfied.

> <CHARMm Energy>
-23.82979

> <Potential Energy>
-23.82979

> <RMS Gradient>
0.0087

> <Bond Energy>
3.47478

> <Angle Energy>
3.33988

> <STRBend>
-0.02058

> <Dihedral Energy>
12.37354

> <OOPLane>
0.07387

> <Van der Waals Energy>
34.27839

> <Electrostatic Energy>
-77.34968

> <Hydrogen Bond Energy>
0

> <Solvation Free Energy>
0

> <HasGasteigerCharges>
true

> <REMARK99>
REMARK  99  MacroMolecule created from Mol2 file
REMARK  99  CHEMBL4745294
REMARK  99  PROTEIN
REMARK  99  GASTEIGER
REMARK  99
REMARK  99

$$$$
CHEMBL181219
  SciTegic05292516403D

 51 54  0  0  0  0            999 V2000
   -0.5628   -1.0209   -1.0485 N   0  0
    0.6007   -0.2936   -1.3303 C   0  0
    0.4295    1.0183   -0.9052 C   0  0
   -1.5449   -0.1105   -0.6326 C   0  0
   -0.9242    1.1282   -0.4513 C   0  0
   -0.7189   -2.4289   -1.1827 C   0  0
    6.3261    2.5040   -0.0580 C   0  0
   -2.9370   -0.2521   -0.4305 C   0  0
    1.4171    2.1502   -1.0112 C   0  0
   -1.7529   -3.2494   -0.5102 C   0  0
    4.9650    2.1370    0.4159 C   0  0
   -1.6910    2.2089    0.0504 C   0  0
    0.0768   -3.0388   -1.8966 O   0  0
    3.8810    2.2424   -0.4684 C   0  0
    2.5700    1.9348   -0.0487 C   0  0
    6.7566    2.2275   -1.1634 O   0  0
   -2.4056   -4.2436   -1.2503 C   0  0
   -2.0356   -3.0899    0.8537 C   0  0
    1.8134   -0.9165   -1.9471 C   0  0
   -3.0567    2.0532    0.3209 C   0  0
   -3.6740    0.8365    0.0530 C   0  0
    7.0225    3.2217    0.8548 O   0  0
   -3.6754   -4.8604    0.7082 C   0  0
   -3.0082   -3.8909    1.4588 C   0  0
   -3.3719   -5.0459   -0.6400 C   0  0
   -4.8788   -5.8363    1.4544 Cl  0  0
   -3.8853    3.0277    0.8184 O   0  0
    4.7577    1.6884    1.7244 C   0  0
    3.4643    1.3966    2.1566 C   0  0
    2.3797    1.5380    1.2847 C   0  0
   -3.2424    4.2302    1.2351 C   0  0
   -3.4595   -1.1763   -0.6545 H   0  0
    1.7816    2.2014   -2.0447 H   0  0
    0.9514    3.1158   -0.7872 H   0  0
   -1.1939    3.1606    0.1944 H   0  0
    4.0666    2.5822   -1.4879 H   0  0
   -2.1649   -4.3986   -2.3011 H   0  0
   -1.5057   -2.3491    1.4497 H   0  0
    2.6087   -0.1817   -2.1016 H   0  0
    1.5777   -1.3347   -2.9307 H   0  0
    2.2177   -1.7026   -1.3016 H   0  0
   -4.7470    0.7258    0.2168 H   0  0
    6.4682    3.5300    1.5980 H   0  0
   -3.2473   -3.7641    2.5128 H   0  0
   -3.8779   -5.8143   -1.2192 H   0  0
    5.5939    1.5488    2.4064 H   0  0
    3.2939    1.0540    3.1751 H   0  0
    1.3799    1.3194    1.6567 H   0  0
   -4.0049    4.8739    1.6845 H   0  0
   -2.8207    4.7672    0.3791 H   0  0
   -2.4832    4.0339    1.9998 H   0  0
  2  1  1  0
  3  2  2  0
  3  5  1  0
  4  1  1  0
  5  4  1  0
  6  1  1  0
  7 11  1  0
  8  4  2  0
  8 32  1  0
  9  3  1  0
  9 33  1  0
  9 34  1  0
 10  6  1  0
 11 14  2  0
 12  5  2  0
 12 35  1  0
 13  6  2  0
 14 15  1  0
 14 36  1  0
 15  9  1  0
 16  7  2  0
 17 10  1  0
 17 37  1  0
 18 10  2  0
 18 38  1  0
 19  2  1  0
 19 39  1  0
 19 40  1  0
 19 41  1  0
 20 12  1  0
 20 21  2  0
 21  8  1  0
 21 42  1  0
 22  7  1  0
 22 43  1  0
 23 24  2  0
 23 25  1  0
 24 18  1  0
 24 44  1  0
 25 17  2  0
 25 45  1  0
 26 23  1  0
 27 20  1  0
 28 11  1  0
 28 29  2  0
 28 46  1  0
 29 30  1  0
 29 47  1  0
 30 15  2  0
 30 48  1  0
 31 27  1  0
 31 49  1  0
 31 50  1  0
 31 51  1  0
M  END
> <Name>
CHEMBL181219

> <Clean Energy>
53.3699

> <chembl_id>
CHEMBL181219

> <chembl_pref_name>
None

> <efficacy>
0.33

> <Forcefield>
MMFF

> <ForcefieldBase>
MMFF

> <ForcefieldFFML>
<?xml version="1.0" encoding="UTF-8"?>
<!DOCTYPE ffml SYSTEM "Ffml.dtd">
<ffml version="1.0">
<forcefield name="MMFF" derivedFrom="MMFF" base="MMFF">
<atomTypes>
<atomType
name="N100"
element="N"
mass="14.007"
annotation=""/>
<atomType
name="C101"
element="C"
mass="12.011"
annotation=""/>
<atomType
name="O102"
element="O"
mass="16"
annotation=""/>
<atomType
name="Cl103"
element="Cl"
mass="35.453"
annotation=""/>
<atomType
name="H104"
element="H"
mass="1.008"
annotation=""/>
</atomTypes>
<parameters>
</parameters>
</forcefield>
</ffml>

> <Initial Potential Energy>
868.24242

> <Initial RMS Gradient>
331.07456

> <Minimization Criteria>
CONJUG> Minimization exiting with gradient tolerance ( 0.0100000) satisfied.

> <CHARMm Energy>
125.9475

> <Potential Energy>
125.9475

> <RMS Gradient>
0.00857

> <Bond Energy>
9.09734

> <Angle Energy>
14.98523

> <STRBend>
0.247

> <Dihedral Energy>
13.38703

> <OOPLane>
0.17875

> <Van der Waals Energy>
62.95906

> <Electrostatic Energy>
25.09309

> <Hydrogen Bond Energy>
0

> <Solvation Free Energy>
0

> <HasGasteigerCharges>
true

> <REMARK99>
REMARK  99  MacroMolecule created from Mol2 file
REMARK  99  CHEMBL181219
REMARK  99  PROTEIN
REMARK  99  GASTEIGER
REMARK  99
REMARK  99

$$$$
CHEMBL60633
  SciTegic05292516403D

 73 77  0  0  0  0            999 V2000
    1.3033   -6.5975   -0.1166 C   0  0
    2.6667   -5.9643   -0.1687 C   0  0  2  0  0  0
    0.6696   -6.1936    1.0553 C   0  0
   14.0542   -9.7523    2.4817 N   0  0
    1.4535   -5.3995    1.8571 O   0  0
   14.1107   -8.6059    1.7630 C   0  0
    0.6932   -7.5357   -0.9510 C   0  0
    2.5316   -4.9358    0.9990 C   0  0
   12.8408  -10.3443    2.6621 C   0  0
   -0.6397   -7.8909   -0.6472 C   0  0
   -0.6137   -6.5952    1.4133 C   0  0
   12.5301   -8.1292    1.2292 S   0  0
   -1.3101   -7.4184    0.5067 C   0  0
    3.0824   -5.3588   -1.5255 C   0  0
    4.4306   -4.7507   -1.5208 N   0  0
   11.7097   -9.5573    2.0329 C   0  0  1  0  0  0
   15.1429   -8.0012    1.5177 O   0  0
    5.5049   -5.6540   -1.9997 C   0  0  2  0  0  0
   12.7122  -11.4007    3.2701 O   0  0
   10.9324  -10.4477    1.0582 C   0  0
    5.9766   -6.7575   -1.0471 C   0  0
    6.9664   -7.5201   -1.7456 O   0  0
   -1.3557   -8.7306   -1.4660 O   0  0
    9.8248   -9.7278    0.3289 C   0  0
    7.8328   -8.2581   -0.9949 C   0  0
    4.4698   -3.6281   -2.4832 C   0  0
    1.4255   -8.1489   -2.1081 C   0  0
    2.1608   -3.4971    0.6054 C   0  0
    3.7981   -4.9136    1.8636 C   0  0
   -1.2299   -6.1108    2.6932 C   0  0
    9.9746   -9.3890   -1.0206 C   0  0
    8.6506   -9.3549    0.9970 C   0  0
    8.9801   -8.6651   -1.6755 C   0  0
    7.6558   -8.6256    0.3366 C   0  0
   -2.7209   -7.8656    0.7955 C   0  0
    5.9541   -3.3531   -2.6471 C   0  0
    6.6407   -4.6727   -2.3210 C   0  0
    3.3679   -6.7532    0.1235 H   0  0
   14.8990  -10.1626    2.8538 H   0  0
    3.0240   -6.0967   -2.3306 H   0  0
    2.3310   -4.6057   -1.7993 H   0  0
   11.0668   -9.1772    2.8338 H   0  0
    5.2035   -6.1198   -2.9500 H   0  0
   11.6171  -10.9139    0.3357 H   0  0
   10.4886  -11.2913    1.6046 H   0  0
    6.3804   -6.3060   -0.1325 H   0  0
    5.1551   -7.4328   -0.7956 H   0  0
   -0.8655   -8.8719   -2.2895 H   0  0
    4.0379   -3.9145   -3.4514 H   0  0
    3.9397   -2.7456   -2.1122 H   0  0
    1.1346   -9.1941   -2.2553 H   0  0
    2.5038   -8.1806   -1.9240 H   0  0
    1.2266   -7.5881   -3.0257 H   0  0
    2.9730   -2.9854    0.0840 H   0  0
    1.9166   -2.9074    1.4974 H   0  0
    1.2650   -3.4732   -0.0246 H   0  0
    3.6602   -4.2684    2.7390 H   0  0
    4.6679   -4.5547    1.3058 H   0  0
    4.0223   -5.9128    2.2546 H   0  0
   -1.7573   -6.9236    3.2031 H   0  0
   -1.9318   -5.2965    2.4873 H   0  0
   -0.4770   -5.7428    3.3974 H   0  0
   10.8724   -9.6636   -1.5687 H   0  0
    8.5011   -9.6228    2.0408 H   0  0
    9.0971   -8.3970   -2.7219 H   0  0
    6.7581   -8.3602    0.8852 H   0  0
   -3.2915   -7.0803    1.3015 H   0  0
   -2.7053   -8.7594    1.4267 H   0  0
   -3.2746   -8.0923   -0.1213 H   0  0
    6.1904   -3.0123   -3.6602 H   0  0
    6.2867   -2.5790   -1.9458 H   0  0
    7.2441   -5.0252   -3.1648 H   0  0
    7.3134   -4.5313   -1.4663 H   0  0
  2  1  1  0
  2 38  1  0
  3  1  2  0
  4  6  1  0
  4  9  1  0
  4 39  1  0
  5  3  1  0
  6 12  1  0
  7  1  1  0
  8  2  1  0
  8  5  1  0
  9 16  1  0
 10  7  2  0
 11  3  1  0
 12 16  1  0
 13 10  1  0
 13 11  2  0
 14  2  1  0
 14 40  1  0
 14 41  1  0
 15 14  1  0
 16 20  1  0
 16 42  1  0
 17  6  2  0
 18 15  1  0
 18 21  1  0
 18 43  1  0
 19  9  2  0
 20 24  1  0
 20 44  1  0
 20 45  1  0
 21 46  1  0
 21 47  1  0
 22 21  1  0
 23 10  1  0
 23 48  1  0
 24 31  1  0
 24 32  2  0
 25 22  1  0
 26 15  1  0
 26 49  1  0
 26 50  1  0
 27  7  1  0
 27 51  1  0
 27 52  1  0
 27 53  1  0
 28  8  1  0
 28 54  1  0
 28 55  1  0
 28 56  1  0
 29  8  1  0
 29 57  1  0
 29 58  1  0
 29 59  1  0
 30 11  1  0
 30 60  1  0
 30 61  1  0
 30 62  1  0
 31 33  2  0
 31 63  1  0
 32 34  1  0
 32 64  1  0
 33 25  1  0
 33 65  1  0
 34 25  2  0
 34 66  1  0
 35 13  1  0
 35 67  1  0
 35 68  1  0
 35 69  1  0
 36 26  1  0
 36 37  1  0
 36 70  1  0
 36 71  1  0
 37 18  1  0
 37 72  1  0
 37 73  1  0
M  END
> <Name>
CHEMBL60633

> <Clean Energy>
144.376007

> <chembl_id>
CHEMBL60633

> <chembl_pref_name>
None

> <efficacy>
0.319092827

> <Forcefield>
MMFF

> <ForcefieldBase>
MMFF

> <ForcefieldFFML>
<?xml version="1.0" encoding="UTF-8"?>
<!DOCTYPE ffml SYSTEM "Ffml.dtd">
<ffml version="1.0">
<forcefield name="MMFF" derivedFrom="MMFF" base="MMFF">
<atomTypes>
<atomType
name="C100"
element="C"
mass="12.011"
annotation=""/>
<atomType
name="N101"
element="N"
mass="14.007"
annotation=""/>
<atomType
name="O102"
element="O"
mass="16"
annotation=""/>
<atomType
name="S103"
element="S"
mass="32.066"
annotation=""/>
<atomType
name="H104"
element="H"
mass="1.008"
annotation=""/>
</atomTypes>
<parameters>
</parameters>
</forcefield>
</ffml>

> <Initial Potential Energy>
241.86006

> <Initial RMS Gradient>
28.39595

> <Minimization Criteria>
STEEPD> Minimization exiting with gradient tolerance ( 3.0000000) satisfied.

> <CHARMm Energy>
28.26293

> <Potential Energy>
28.26293

> <RMS Gradient>
0.11709

> <Bond Energy>
8.20493

> <Angle Energy>
27.91821

> <STRBend>
0.88434

> <Dihedral Energy>
9.70287

> <OOPLane>
0.13227

> <Van der Waals Energy>
62.80286

> <Electrostatic Energy>
-81.38255

> <Hydrogen Bond Energy>
0

> <Solvation Free Energy>
0

> <HasGasteigerCharges>
true

> <REMARK99>
REMARK  99  MacroMolecule created from Mol2 file
REMARK  99  CHEMBL60633
REMARK  99  PROTEIN
REMARK  99  GASTEIGER
REMARK  99
REMARK  99

$$$$
CHEMBL1947143
  SciTegic05292516403D

 55 59  0  0  0  0            999 V2000
    6.2564   -8.6396   -0.7673 C   0  0
    6.2466  -10.0110   -0.4629 C   0  0
    7.3782  -10.6186    0.0853 C   0  0
    7.3794   -7.8432   -0.5170 C   0  0
    8.4936   -8.4484    0.0390 C   0  0
    8.4851   -9.8214    0.3226 C   0  0
    9.7323  -10.1602    0.8624 N   0  0
   10.5338   -8.9979    0.9417 C   0  0
    9.7657   -7.9448    0.3936 N   0  0
   11.6504   -8.9680    1.4380 O   0  0
   10.1608   -6.6193    0.2507 C   0  0
   10.1589  -11.4588    1.3124 C   0  0
   11.0952  -12.1235    0.3251 C   0  0
   10.5889  -12.8471   -0.7619 C   0  0
   11.4569  -13.4216   -1.6923 C   0  0
   12.8375  -13.2779   -1.5438 C   0  0
   13.3649  -12.5660   -0.4590 C   0  0
   12.4893  -11.9780    0.4596 C   0  0
    9.9906   -4.4468    0.0327 O   0  0
    9.2755   -5.6157    0.1069 N   0  0
   11.3147   -4.7194    0.0800 C   0  0
   11.4952   -6.0863    0.2082 C   0  0
   12.8216   -6.5563    0.2123 C   0  0
   13.8799   -5.6366    0.1224 C   0  0
   13.6422   -4.2629    0.0140 C   0  0
   12.3334   -3.7711   -0.0059 C   0  0
   14.6113   -3.2984   -0.0923 O   0  0
   15.9543   -3.7750   -0.1396 C   0  0
   13.8734  -14.0104   -2.7169 Cl  0  0
   14.7270  -12.4100   -0.3955 O   0  0
   15.3211  -12.5424    0.9073 C   0  0  1  0  0  0
   16.4827  -13.5276    0.7993 C   0  0
   16.7203  -13.9742   -0.4636 O   0  0
   17.1586  -13.9089    1.7475 O   0  0
   15.8582  -11.1879    1.3447 C   0  0
    5.3667   -8.1816   -1.1978 H   0  0
    5.3400  -10.5876   -0.6543 H   0  0
    7.3731  -11.6762    0.3162 H   0  0
    7.3304   -6.7857   -0.7591 H   0  0
   10.6790  -11.3345    2.2707 H   0  0
    9.2971  -12.1041    1.5140 H   0  0
    9.5154  -12.9581   -0.8999 H   0  0
   11.0498  -13.9742   -2.5354 H   0  0
   12.8732  -11.3686    1.2747 H   0  0
   13.0552   -7.6145    0.2638 H   0  0
   14.8873   -6.0429    0.1347 H   0  0
   12.1173   -2.7092   -0.0983 H   0  0
   16.6089   -2.9048   -0.2500 H   0  0
   16.1172   -4.4214   -1.0085 H   0  0
   16.2295   -4.2770    0.7939 H   0  0
   14.6220  -12.9639    1.6399 H   0  0
   16.0770  -13.5301   -1.0682 H   0  0
   16.3370  -11.2484    2.3272 H   0  0
   15.0590  -10.4418    1.3915 H   0  0
   16.5987  -10.8124    0.6291 H   0  0
  1  2  2  0
  1 36  1  0
  2  3  1  0
  2 37  1  0
  3  6  2  0
  3 38  1  0
  4  1  1  0
  4 39  1  0
  5  4  2  0
  5  6  1  0
  6  7  1  0
  7  8  1  0
  7 12  1  0
  8  9  1  0
  8 10  2  0
  9  5  1  0
  9 11  1  0
 11 22  1  0
 12 13  1  0
 12 40  1  0
 12 41  1  0
 13 14  2  0
 14 15  1  0
 14 42  1  0
 15 16  2  0
 15 43  1  0
 16 17  1  0
 16 29  1  0
 17 18  2  0
 17 30  1  0
 18 13  1  0
 18 44  1  0
 19 20  1  0
 20 11  2  0
 21 19  1  0
 21 22  2  0
 22 23  1  0
 23 24  2  0
 23 45  1  0
 24 25  1  0
 24 46  1  0
 25 26  2  0
 25 27  1  0
 26 21  1  0
 26 47  1  0
 27 28  1  0
 28 48  1  0
 28 49  1  0
 28 50  1  0
 30 31  1  0
 31 32  1  0
 31 35  1  0
 31 51  1  0
 32 33  1  0
 32 34  2  0
 33 52  1  0
 35 53  1  0
 35 54  1  0
 35 55  1  0
M  END
> <Name>
CHEMBL1947143

> <Clean Energy>
76.871002

> <chembl_id>
CHEMBL1947143

> <chembl_pref_name>
None

> <efficacy>
0.272638298

> <Forcefield>
MMFF

> <ForcefieldBase>
MMFF

> <ForcefieldFFML>
<?xml version="1.0" encoding="UTF-8"?>
<!DOCTYPE ffml SYSTEM "Ffml.dtd">
<ffml version="1.0">
<forcefield name="MMFF" derivedFrom="MMFF" base="MMFF">
<atomTypes>
<atomType
name="C100"
element="C"
mass="12.011"
annotation=""/>
<atomType
name="N101"
element="N"
mass="14.007"
annotation=""/>
<atomType
name="O102"
element="O"
mass="16"
annotation=""/>
<atomType
name="Cl103"
element="Cl"
mass="35.453"
annotation=""/>
<atomType
name="H104"
element="H"
mass="1.008"
annotation=""/>
</atomTypes>
<parameters>
</parameters>
</forcefield>
</ffml>

> <Initial Potential Energy>
190.29832

> <Initial RMS Gradient>
33.89555

> <Minimization Criteria>
CONJUG> Minimization exiting with gradient tolerance ( 0.0100000) satisfied.

> <CHARMm Energy>
56.40351

> <Potential Energy>
56.40351

> <RMS Gradient>
0.00938

> <Bond Energy>
7.20732

> <Angle Energy>
42.66603

> <STRBend>
-2.29829

> <Dihedral Energy>
5.25478

> <OOPLane>
0.09391

> <Van der Waals Energy>
65.95575

> <Electrostatic Energy>
-62.476

> <Hydrogen Bond Energy>
0

> <Solvation Free Energy>
0

> <HasGasteigerCharges>
true

> <REMARK99>
REMARK  99  MacroMolecule created from Mol2 file
REMARK  99  CHEMBL1947143
REMARK  99  PROTEIN
REMARK  99  GASTEIGER
REMARK  99
REMARK  99

$$$$
CHEMBL2331771
  SciTegic05292516403D

 37 39  0  0  0  0            999 V2000
   24.0076   -4.8124   -0.2413 C   0  0
   22.9016   -5.2911   -0.9397 C   0  0
   21.8171   -4.4342   -1.1313 C   0  0
   21.8508   -3.1178   -0.6390 C   0  0
   22.9833   -2.6293    0.0220 C   0  0
   24.0444   -3.5070    0.2596 C   0  0
   22.3804    0.0459   -0.1992 S   0  0
   23.0740   -1.3038    0.5711 N   0  0
   20.7056    0.0725    0.3873 C   0  0
   19.7286    0.8008   -0.2980 C   0  0
   18.4049    0.7894    0.1597 C   0  0
   18.0629    0.0418    1.2848 C   0  0
   19.0339   -0.6729    1.9807 C   0  0
   20.3585   -0.6526    1.5392 C   0  0
   22.9939   -6.4894   -1.6042 O   0  0
   22.1154   -8.6341   -1.9507 C   0  0
   22.4746   -7.6319   -1.0463 C   0  0
   22.3645   -7.9158    0.3113 C   0  0
   21.9121   -9.1823    0.6964 C   0  0
   21.5849  -10.1193   -0.2814 C   0  0
   21.6717   -9.8736   -1.6083 N   0  0
   21.8013   -9.6148    2.3590 Cl  0  0
   22.3828   -0.2376   -1.6169 O   0  0
   23.0339    1.2078    0.3674 O   0  0
   16.4321    0.0190    1.8303 Cl  0  0
   20.0560    1.7859   -1.6765 Cl  0  0
   25.0769   -5.6008   -0.0581 F   0  0
   20.4207   -4.9392   -2.0127 Cl  0  0
   20.9903   -2.4824   -0.8236 H   0  0
   24.9335   -3.1865    0.7948 H   0  0
   23.9397   -1.0284    1.0396 H   0  0
   17.6416    1.3695   -0.3568 H   0  0
   18.7673   -1.2431    2.8680 H   0  0
   21.1031   -1.2040    2.1079 H   0  0
   22.1910   -8.4537   -3.0207 H   0  0
   22.6575   -7.1957    1.0666 H   0  0
   21.2473  -11.1237   -0.0242 H   0  0
  1  2  1  0
  1  6  2  0
  1 27  1  0
  2  3  2  0
  2 15  1  0
  3  4  1  0
  3 28  1  0
  4  5  2  0
  4 29  1  0
  5  6  1  0
  5  8  1  0
  6 30  1  0
  7  8  1  0
  7  9  1  0
  7 23  2  0
  7 24  2  0
  8 31  1  0
  9 10  1  0
  9 14  2  0
 10 11  2  0
 10 26  1  0
 11 12  1  0
 11 32  1  0
 12 13  2  0
 12 25  1  0
 13 14  1  0
 13 33  1  0
 14 34  1  0
 15 17  1  0
 16 17  1  0
 16 21  2  0
 16 35  1  0
 17 18  2  0
 18 19  1  0
 18 36  1  0
 19 20  2  0
 19 22  1  0
 20 21  1  0
 20 37  1  0
M  END
> <Name>
CHEMBL2331771

> <Clean Energy>
52.004398

> <chembl_id>
CHEMBL2331771

> <chembl_pref_name>
None

> <efficacy>
0.45

> <Forcefield>
MMFF

> <ForcefieldBase>
MMFF

> <ForcefieldFFML>
<?xml version="1.0" encoding="UTF-8"?>
<!DOCTYPE ffml SYSTEM "Ffml.dtd">
<ffml version="1.0">
<forcefield name="MMFF" derivedFrom="MMFF" base="MMFF">
<atomTypes>
<atomType
name="C100"
element="C"
mass="12.011"
annotation=""/>
<atomType
name="S101"
element="S"
mass="32.066"
annotation=""/>
<atomType
name="N102"
element="N"
mass="14.007"
annotation=""/>
<atomType
name="O103"
element="O"
mass="16"
annotation=""/>
<atomType
name="Cl104"
element="Cl"
mass="35.453"
annotation=""/>
<atomType
name="F105"
element="F"
mass="18.998"
annotation=""/>
<atomType
name="H106"
element="H"
mass="1.008"
annotation=""/>
</atomTypes>
<parameters>
</parameters>
</forcefield>
</ffml>

> <Initial Potential Energy>
632.58823

> <Initial RMS Gradient>
301.80167

> <Minimization Criteria>
CONJUG> Minimization exiting with gradient tolerance ( 0.0100000) satisfied.

> <CHARMm Energy>
9.10035

> <Potential Energy>
9.10035

> <RMS Gradient>
0.00914

> <Bond Energy>
3.98052

> <Angle Energy>
15.81578

> <STRBend>
1.10588

> <Dihedral Energy>
8.48042

> <OOPLane>
0.43128

> <Van der Waals Energy>
49.21946

> <Electrostatic Energy>
-69.93298

> <Hydrogen Bond Energy>
0

> <Solvation Free Energy>
0

> <HasGasteigerCharges>
true

> <REMARK99>
REMARK  99  MacroMolecule created from Mol2 file
REMARK  99  CHEMBL2331771
REMARK  99  PROTEIN
REMARK  99  GASTEIGER
REMARK  99
REMARK  99

$$$$
CHEMBL1644298
  SciTegic05292516403D

 57 59  0  0  0  0            999 V2000
    3.9918  -17.1307    0.1758 C   0  0
    4.4993  -17.9323    1.2035 C   0  0
    5.7400  -18.5475    1.0512 C   0  0
    6.4482  -18.3842   -0.1421 C   0  0
    5.9813  -17.5385   -1.1582 C   0  0
    4.7308  -16.9261   -0.9963 C   0  0
    2.6206  -16.5750    0.3062 C   0  0
    2.4159  -15.0969    0.0017 C   0  0
    1.6745  -17.3870    0.6804 N   0  0
    0.4242  -16.7565    0.6996 O   0  0
   -0.5787  -17.7350    0.9989 C   0  0
   -1.9416  -17.2121    0.7249 C   0  0
   -2.4736  -15.9687    0.9959 C   0  0
   -3.7615  -15.9558    0.5446 O   0  0
   -3.9591  -17.2090    0.0245 C   0  0
   -2.9017  -17.9969    0.1143 N   0  0
   -1.9689  -14.7301    1.6142 C   0  0
   -5.2735  -17.4832   -0.5478 C   0  0
   -6.2592  -16.4888   -0.6417 C   0  0
   -7.5057  -16.7725   -1.2025 C   0  0
   -7.7808  -18.0538   -1.6743 C   0  0
   -6.8174  -19.0547   -1.5861 C   0  0
   -5.5708  -18.7691   -1.0271 C   0  0
    6.7611  -17.3470   -2.4269 C   0  0
    7.6111  -19.0837   -0.3366 O   0  0
    7.3156  -20.4526   -0.6226 C   0  0
    7.6947  -21.4010    0.5088 C   0  0
    7.2641  -22.6735    0.3040 O   0  0
    8.3637  -21.1055    1.4886 O   0  0
    2.3080  -14.2949    1.2981 C   0  0
    2.0586  -12.8215    1.0214 C   0  0
    3.9216  -18.0921    2.1111 H   0  0
    6.1442  -19.1660    1.8498 H   0  0
    4.3147  -16.3279   -1.8037 H   0  0
    3.2496  -14.7054   -0.5896 H   0  0
    1.5153  -14.9770   -0.6111 H   0  0
   -0.4049  -18.6316    0.3912 H   0  0
   -0.4951  -18.0095    2.0564 H   0  0
   -2.7903  -14.1145    1.9937 H   0  0
   -1.4085  -14.1412    0.8818 H   0  0
   -1.3041  -14.9581    2.4530 H   0  0
   -6.0624  -15.4813   -0.2816 H   0  0
   -8.2629  -15.9951   -1.2707 H   0  0
   -8.7500  -18.2746   -2.1111 H   0  0
   -7.0400  -20.0545   -1.9520 H   0  0
   -4.8216  -19.5567   -0.9660 H   0  0
    6.3905  -16.4870   -2.9946 H   0  0
    6.6773  -18.2378   -3.0572 H   0  0
    7.8167  -17.1577   -2.2064 H   0  0
    6.2612  -20.6120   -0.8870 H   0  0
    7.9227  -20.7321   -1.4909 H   0  0
    6.6249  -22.7553   -0.4320 H   0  0
    1.4984  -14.6833    1.9261 H   0  0
    3.2320  -14.4045    1.8786 H   0  0
    1.9906  -12.2654    1.9617 H   0  0
    1.1213  -12.6792    0.4742 H   0  0
    2.8721  -12.3898    0.4297 H   0  0
  1  2  2  0
  1  7  1  0
  2  3  1  0
  2 32  1  0
  3  4  2  0
  3 33  1  0
  4  5  1  0
  4 25  1  0
  5  6  2  0
  5 24  1  0
  6  1  1  0
  6 34  1  0
  7  8  1  0
  7  9  2  0
  8 30  1  0
  8 35  1  0
  8 36  1  0
  9 10  1  0
 10 11  1  0
 11 12  1  0
 11 37  1  0
 11 38  1  0
 12 13  2  0
 13 14  1  0
 13 17  1  0
 14 15  1  0
 15 16  2  0
 15 18  1  0
 16 12  1  0
 17 39  1  0
 17 40  1  0
 17 41  1  0
 18 19  2  0
 19 20  1  0
 19 42  1  0
 20 21  2  0
 20 43  1  0
 21 22  1  0
 21 44  1  0
 22 23  2  0
 22 45  1  0
 23 18  1  0
 23 46  1  0
 24 47  1  0
 24 48  1  0
 24 49  1  0
 25 26  1  0
 26 27  1  0
 26 50  1  0
 26 51  1  0
 27 28  1  0
 27 29  2  0
 28 52  1  0
 30 31  1  0
 30 53  1  0
 30 54  1  0
 31 55  1  0
 31 56  1  0
 31 57  1  0
M  END
> <Name>
CHEMBL1644298

> <Clean Energy>
41.719898

> <chembl_id>
CHEMBL1644298

> <chembl_pref_name>
None

> <efficacy>
0.314

> <Forcefield>
MMFF

> <ForcefieldBase>
MMFF

> <ForcefieldFFML>
<?xml version="1.0" encoding="UTF-8"?>
<!DOCTYPE ffml SYSTEM "Ffml.dtd">
<ffml version="1.0">
<forcefield name="MMFF" derivedFrom="MMFF" base="MMFF">
<atomTypes>
<atomType
name="C100"
element="C"
mass="12.011"
annotation=""/>
<atomType
name="N101"
element="N"
mass="14.007"
annotation=""/>
<atomType
name="O102"
element="O"
mass="16"
annotation=""/>
<atomType
name="H103"
element="H"
mass="1.008"
annotation=""/>
</atomTypes>
<parameters>
</parameters>
</forcefield>
</ffml>

> <Initial Potential Energy>
204.74861

> <Initial RMS Gradient>
28.6457

> <Minimization Criteria>
CONJUG> Minimization exiting with gradient tolerance ( 0.0100000) satisfied.

> <CHARMm Energy>
111.33054

> <Potential Energy>
111.33054

> <RMS Gradient>
0.00938

> <Bond Energy>
4.56973

> <Angle Energy>
7.89233

> <STRBend>
0.88418

> <Dihedral Energy>
7.53454

> <OOPLane>
0.12289

> <Van der Waals Energy>
47.35257

> <Electrostatic Energy>
42.9743

> <Hydrogen Bond Energy>
0

> <Solvation Free Energy>
0

> <HasGasteigerCharges>
true

> <REMARK99>
REMARK  99  MacroMolecule created from Mol2 file
REMARK  99  CHEMBL1644298
REMARK  99  PROTEIN
REMARK  99  GASTEIGER
REMARK  99
REMARK  99

$$$$
CHEMBL1644314
  SciTegic05292516403D

 60 62  0  0  0  0            999 V2000
    4.2253  -28.7995    0.1487 C   0  0
    4.7822  -29.5670    1.1767 C   0  0
    6.0044  -30.2052    0.9779 C   0  0
    6.6437  -30.0993   -0.2600 C   0  0
    6.1283  -29.2883   -1.2808 C   0  0
    4.8966  -28.6522   -1.0717 C   0  0
    2.8724  -28.2167    0.3374 C   0  0
    2.6734  -26.7464   -0.0075 C   0  0
    1.9379  -28.9978    0.7961 N   0  0
    0.7026  -28.3423    0.8653 O   0  0
   -0.3006  -29.2876    1.2543 C   0  0
   -1.6639  -28.7538    1.0065 C   0  0
   -2.1610  -27.4856    1.2249 C   0  0
   -3.4637  -27.4697    0.8185 O   0  0
   -3.7043  -28.7457    0.3782 C   0  0
   -2.6610  -29.5509    0.4775 N   0  0
   -1.6087  -26.2251    1.7515 C   0  0
   -5.0406  -29.0216   -0.1379 C   0  0
   -5.9954  -28.0068   -0.2925 C   0  0
   -7.2621  -28.2921   -0.8070 C   0  0
   -7.6018  -29.6007   -1.1644 C   0  0
   -6.6542  -30.6177   -1.0204 C   0  0
   -5.3877  -30.3293   -0.5084 C   0  0
    6.8330  -29.1601   -2.6005 C   0  0
    7.7854  -30.8220   -0.4918 O   0  0
    7.4581  -32.1957   -0.7111 C   0  0
    7.8913  -33.1084    0.4303 C   0  0
    7.4355  -34.3815    0.2962 O   0  0
    8.6190  -32.7875    1.3587 O   0  0
    2.6587  -25.8984    1.2639 C   0  0
    2.4231  -24.4298    0.9514 C   0  0
   -8.9459  -29.9007   -1.7540 C   0  0
    4.2567  -29.6823    2.1221 H   0  0
    6.4476  -30.7969    1.7762 H   0  0
    4.4409  -28.0807   -1.8770 H   0  0
    3.4758  -26.3919   -0.6620 H   0  0
    1.7390  -26.6311   -0.5684 H   0  0
   -0.1662  -30.2170    0.6870 H   0  0
   -0.1780  -29.5093    2.3202 H   0  0
   -2.4031  -25.5693    2.1212 H   0  0
   -1.0618  -25.6932    0.9671 H   0  0
   -0.9199  -26.4191    2.5795 H   0  0
   -5.7578  -26.9802   -0.0223 H   0  0
   -7.9835  -27.4862   -0.9271 H   0  0
   -6.8992  -31.6390   -1.3067 H   0  0
   -4.6611  -31.1332   -0.4034 H   0  0
    6.4557  -28.3039   -3.1695 H   0  0
    6.6806  -30.0651   -3.1968 H   0  0
    7.9061  -29.0012   -2.4527 H   0  0
    6.3883  -32.3503   -0.9078 H   0  0
    8.0104  -32.5138   -1.6024 H   0  0
    6.7544  -34.4807   -0.3990 H   0  0
    1.8799  -26.2475    1.9513 H   0  0
    3.6128  -26.0086    1.7932 H   0  0
    2.4200  -23.8418    1.8745 H   0  0
    1.4591  -24.2849    0.4534 H   0  0
    3.2100  -24.0357    0.3004 H   0  0
   -9.2695  -30.9143   -1.4943 H   0  0
   -8.9053  -29.8103   -2.8438 H   0  0
   -9.7048  -29.2108   -1.3702 H   0  0
  1  2  2  0
  1  7  1  0
  2  3  1  0
  2 33  1  0
  3  4  2  0
  3 34  1  0
  4  5  1  0
  4 25  1  0
  5  6  2  0
  5 24  1  0
  6  1  1  0
  6 35  1  0
  7  8  1  0
  7  9  2  0
  8 30  1  0
  8 36  1  0
  8 37  1  0
  9 10  1  0
 10 11  1  0
 11 12  1  0
 11 38  1  0
 11 39  1  0
 12 13  2  0
 13 14  1  0
 13 17  1  0
 14 15  1  0
 15 16  2  0
 15 18  1  0
 16 12  1  0
 17 40  1  0
 17 41  1  0
 17 42  1  0
 18 19  2  0
 19 20  1  0
 19 43  1  0
 20 21  2  0
 20 44  1  0
 21 22  1  0
 21 32  1  0
 22 23  2  0
 22 45  1  0
 23 18  1  0
 23 46  1  0
 24 47  1  0
 24 48  1  0
 24 49  1  0
 25 26  1  0
 26 27  1  0
 26 50  1  0
 26 51  1  0
 27 28  1  0
 27 29  2  0
 28 52  1  0
 30 31  1  0
 30 53  1  0
 30 54  1  0
 31 55  1  0
 31 56  1  0
 31 57  1  0
 32 58  1  0
 32 59  1  0
 32 60  1  0
M  END
> <Name>
CHEMBL1644314

> <Clean Energy>
41.8741

> <chembl_id>
CHEMBL1644314

> <chembl_pref_name>
None

> <efficacy>
0.321

> <Forcefield>
MMFF

> <ForcefieldBase>
MMFF

> <ForcefieldFFML>
<?xml version="1.0" encoding="UTF-8"?>
<!DOCTYPE ffml SYSTEM "Ffml.dtd">
<ffml version="1.0">
<forcefield name="MMFF" derivedFrom="MMFF" base="MMFF">
<atomTypes>
<atomType
name="C100"
element="C"
mass="12.011"
annotation=""/>
<atomType
name="N101"
element="N"
mass="14.007"
annotation=""/>
<atomType
name="O102"
element="O"
mass="16"
annotation=""/>
<atomType
name="H103"
element="H"
mass="1.008"
annotation=""/>
</atomTypes>
<parameters>
</parameters>
</forcefield>
</ffml>

> <Initial Potential Energy>
208.58877

> <Initial RMS Gradient>
27.80131

> <Minimization Criteria>
STEEPD> Minimization exiting with gradient tolerance ( 3.0000000) satisfied.

> <CHARMm Energy>
114.07836

> <Potential Energy>
114.07836

> <RMS Gradient>
0.02881

> <Bond Energy>
4.73881

> <Angle Energy>
7.96914

> <STRBend>
0.88774

> <Dihedral Energy>
7.47848

> <OOPLane>
0.14168

> <Van der Waals Energy>
49.62769

> <Electrostatic Energy>
43.23483

> <Hydrogen Bond Energy>
0

> <Solvation Free Energy>
0

> <HasGasteigerCharges>
true

> <REMARK99>
REMARK  99  MacroMolecule created from Mol2 file
REMARK  99  CHEMBL1644314
REMARK  99  PROTEIN
REMARK  99  GASTEIGER
REMARK  99
REMARK  99

$$$$
CHEMBL460072
  SciTegic05292516403D

 61 64  0  0  0  0            999 V2000
   -6.4781    1.1411   -0.6553 C   0  0
   -6.6638   -0.1278   -1.1810 C   0  0
   -5.7010   -1.1020   -0.9372 C   0  0
   -5.3975    1.5577    0.0440 N   0  0
   -4.4720    0.5878    0.2318 C   0  0
   -4.5658   -0.7339   -0.1941 C   0  0
   -3.4064   -1.4224    0.2700 C   0  0
   -2.6623   -0.5135    1.0222 C   0  0
   -3.2573    0.7320    0.8725 N   0  0
   -1.4606   -0.7535    1.8739 C   0  0
   -2.7381    2.0054    1.3705 C   0  0
   -1.5521    2.5018    0.5631 C   0  0
   -0.2258    2.2994    1.0006 C   0  0
    0.8804    2.7342    0.2495 C   0  0
    0.6357    3.4112   -0.9448 C   0  0
   -0.6690    3.6404   -1.3875 C   0  0
   -1.7587    3.1798   -0.6452 C   0  0
   -3.1256   -2.8401    0.0624 C   0  0
   -4.0128   -3.6910    0.0709 O   0  0
   -1.7296   -3.2729   -0.1854 C   0  0
   -1.2832   -4.4525    0.4168 C   0  0
    0.0236   -4.8972    0.2073 C   0  0
    0.8868   -4.1709   -0.6136 C   0  0
    0.4315   -2.9994   -1.2270 C   0  0
   -0.8738   -2.5479   -1.0206 C   0  0
    2.0954    2.4153    0.8014 O   0  0
    3.3153    2.9152    0.2125 C   0  0  2  0  0  0
    4.4828    2.0427    0.7269 C   0  0
    3.5542    4.3573    0.6406 C   0  0
    4.0493    0.8779    1.2789 O   0  0
    5.6727    2.3255    0.6453 O   0  0
    2.1830   -4.4951   -0.8986 O   0  0
    2.6950   -5.6802   -0.3006 C   0  0
   -7.4667    2.0570   -0.9601 O   0  0
   -7.7331    2.9496    0.1167 C   0  0
    1.6358    3.8693   -1.7091 F   0  0
   -7.5589   -0.3634   -1.7488 H   0  0
   -5.8384   -2.1190   -1.2962 H   0  0
   -1.4387   -0.0921    2.7443 H   0  0
   -0.5428   -0.6110    1.2971 H   0  0
   -1.4608   -1.7747    2.2681 H   0  0
   -3.5417    2.7501    1.3493 H   0  0
   -2.4735    1.8697    2.4246 H   0  0
   -0.0434    1.7952    1.9477 H   0  0
   -0.8296    4.1822   -2.3167 H   0  0
   -2.7698    3.3615   -1.0108 H   0  0
   -1.9494   -5.0238    1.0581 H   0  0
    0.3299   -5.8152    0.6965 H   0  0
    1.1030   -2.4427   -1.8777 H   0  0
   -1.2105   -1.6430   -1.5201 H   0  0
    3.3136    2.7794   -0.8731 H   0  0
    4.4921    4.7439    0.2292 H   0  0
    3.6059    4.4337    1.7328 H   0  0
    2.7416    5.0145    0.3174 H   0  0
    3.0684    0.8595    1.2791 H   0  0
    3.7346   -5.7941   -0.6224 H   0  0
    2.1431   -6.5632   -0.6394 H   0  0
    2.6913   -5.6049    0.7918 H   0  0
   -8.6496    3.4983   -0.1199 H   0  0
   -6.9230    3.6781    0.2264 H   0  0
   -7.8954    2.4082    1.0556 H   0  0
  1  2  2  0
  1 34  1  0
  2  3  1  0
  2 37  1  0
  3  6  2  0
  3 38  1  0
  4  1  1  0
  5  4  2  0
  5  6  1  0
  6  7  1  0
  7  8  2  0
  7 18  1  0
  8  9  1  0
  8 10  1  0
  9  5  1  0
  9 11  1  0
 10 39  1  0
 10 40  1  0
 10 41  1  0
 11 12  1  0
 11 42  1  0
 11 43  1  0
 12 13  2  0
 13 14  1  0
 13 44  1  0
 14 15  2  0
 14 26  1  0
 15 16  1  0
 15 36  1  0
 16 17  2  0
 16 45  1  0
 17 12  1  0
 17 46  1  0
 18 19  2  0
 18 20  1  0
 20 21  2  0
 21 22  1  0
 21 47  1  0
 22 23  2  0
 22 48  1  0
 23 24  1  0
 23 32  1  0
 24 25  2  0
 24 49  1  0
 25 20  1  0
 25 50  1  0
 26 27  1  0
 27 28  1  0
 27 29  1  0
 27 51  1  0
 28 30  1  0
 28 31  2  0
 29 52  1  0
 29 53  1  0
 29 54  1  0
 30 55  1  0
 32 33  1  0
 33 56  1  0
 33 57  1  0
 33 58  1  0
 34 35  1  0
 35 59  1  0
 35 60  1  0
 35 61  1  0
M  END
> <Name>
CHEMBL460072

> <Clean Energy>
100.606003

> <chembl_id>
CHEMBL460072

> <chembl_pref_name>
None

> <efficacy>
0.29

> <Forcefield>
MMFF

> <ForcefieldBase>
MMFF

> <ForcefieldFFML>
<?xml version="1.0" encoding="UTF-8"?>
<!DOCTYPE ffml SYSTEM "Ffml.dtd">
<ffml version="1.0">
<forcefield name="MMFF" derivedFrom="MMFF" base="MMFF">
<atomTypes>
<atomType
name="C100"
element="C"
mass="12.011"
annotation=""/>
<atomType
name="N101"
element="N"
mass="14.007"
annotation=""/>
<atomType
name="O102"
element="O"
mass="16"
annotation=""/>
<atomType
name="F103"
element="F"
mass="18.998"
annotation=""/>
<atomType
name="H104"
element="H"
mass="1.008"
annotation=""/>
</atomTypes>
<parameters>
</parameters>
</forcefield>
</ffml>

> <Initial Potential Energy>
535.84007

> <Initial RMS Gradient>
100.75548

> <Minimization Criteria>
STEEPD> Minimization exiting with gradient tolerance ( 3.0000000) satisfied.

> <CHARMm Energy>
115.74655

> <Potential Energy>
115.74655

> <RMS Gradient>
0.02221

> <Bond Energy>
6.95937

> <Angle Energy>
23.43714

> <STRBend>
1.34964

> <Dihedral Energy>
10.05198

> <OOPLane>
0.09324

> <Van der Waals Energy>
68.28119

> <Electrostatic Energy>
5.57399

> <Hydrogen Bond Energy>
0

> <Solvation Free Energy>
0

> <HasGasteigerCharges>
true

> <REMARK99>
REMARK  99  MacroMolecule created from Mol2 file
REMARK  99  CHEMBL460072
REMARK  99  PROTEIN
REMARK  99  GASTEIGER
REMARK  99
REMARK  99

$$$$
CHEMBL2204687
  SciTegic05292516403D

 54 56  0  0  0  0            999 V2000
   15.8462  -13.9925    0.6028 C   0  0
   14.7058  -15.0430    0.5949 C   0  0
   16.8277  -14.0276    1.3347 O   0  0
   15.6803  -13.0058   -0.3160 O   0  0
   15.3431  -16.3341    0.0754 C   0  0
   13.7295  -14.5015   -0.3200 O   0  0
   12.5156  -15.0597   -0.5822 C   0  0
   12.0315  -16.2903   -0.1516 C   0  0
   10.7449  -16.7176   -0.5165 C   0  0
    9.9255  -15.9261   -1.3299 C   0  0
   10.4149  -14.6922   -1.7659 C   0  0
   11.6948  -14.2683   -1.3940 C   0  0
    8.5421  -16.3862   -1.7245 C   0  0
    7.4358  -15.6950   -0.9257 C   0  0
    6.1669  -16.1717   -1.3967 O   0  0
    5.0494  -15.6067   -0.8455 C   0  0
    3.8438  -16.0238   -1.4189 C   0  0
    2.6186  -15.5297   -0.9575 C   0  0
    2.5970  -14.6186    0.1013 C   0  0
    3.8033  -14.1856    0.6683 C   0  0
    5.0264  -14.6836    0.2023 C   0  0
    1.3220  -14.0520    0.6165 C   0  0
    0.0806  -14.8654    0.7012 C   0  0
    0.1133  -16.2369    0.9825 C   0  0
   -1.0794  -16.9591    1.0731 C   0  0
   -2.3040  -16.3142    0.8972 C   0  0
   -2.3419  -14.9445    0.6380 C   0  0
   -1.1527  -14.2191    0.5457 C   0  0
    1.2952  -12.8792    0.9827 O   0  0
   14.1896  -15.1261    2.0335 C   0  0
   14.8292  -13.1516   -0.7863 H   0  0
   14.6616  -17.1859    0.1014 H   0  0
   16.2252  -16.6111    0.6638 H   0  0
   15.6584  -16.2156   -0.9681 H   0  0
   12.6173  -16.9586    0.4676 H   0  0
   10.3844  -17.6800   -0.1574 H   0  0
    9.8049  -14.0511   -2.3993 H   0  0
   12.0489  -13.3010   -1.7445 H   0  0
    8.3925  -16.2097   -2.7978 H   0  0
    8.4544  -17.4740   -1.6058 H   0  0
    7.5504  -15.9329    0.1392 H   0  0
    7.5006  -14.6091   -1.0686 H   0  0
    3.8508  -16.7356   -2.2423 H   0  0
    1.7007  -15.8509   -1.4443 H   0  0
    3.7769  -13.4587    1.4791 H   0  0
    5.9390  -14.3290    0.6743 H   0  0
    1.0550  -16.7527    1.1529 H   0  0
   -1.0560  -18.0238    1.2929 H   0  0
   -3.2333  -16.8755    0.9762 H   0  0
   -3.2985  -14.4397    0.5175 H   0  0
   -1.1902  -13.1478    0.3573 H   0  0
   13.4268  -15.8960    2.1659 H   0  0
   13.7345  -14.1753    2.3351 H   0  0
   14.9975  -15.3512    2.7388 H   0  0
  1  2  1  0
  1  3  2  0
  1  4  1  0
  2  5  1  0
  2  6  1  0
  2 30  1  0
  4 31  1  0
  5 32  1  0
  5 33  1  0
  5 34  1  0
  6  7  1  0
  7  8  1  0
  7 12  2  0
  8  9  2  0
  8 35  1  0
  9 10  1  0
  9 36  1  0
 10 11  2  0
 10 13  1  0
 11 12  1  0
 11 37  1  0
 12 38  1  0
 13 14  1  0
 13 39  1  0
 13 40  1  0
 14 15  1  0
 14 41  1  0
 14 42  1  0
 15 16  1  0
 16 17  1  0
 16 21  2  0
 17 18  2  0
 17 43  1  0
 18 19  1  0
 18 44  1  0
 19 20  2  0
 19 22  1  0
 20 21  1  0
 20 45  1  0
 21 46  1  0
 22 23  1  0
 22 29  2  0
 23 24  1  0
 23 28  2  0
 24 25  2  0
 24 47  1  0
 25 26  1  0
 25 48  1  0
 26 27  2  0
 26 49  1  0
 27 28  1  0
 27 50  1  0
 28 51  1  0
 30 52  1  0
 30 53  1  0
 30 54  1  0
M  END
> <Name>
CHEMBL2204687

> <Clean Energy>
23.1493

> <chembl_id>
CHEMBL2204687

> <chembl_pref_name>
None

> <efficacy>
0.113960114

> <Forcefield>
MMFF

> <ForcefieldBase>
MMFF

> <ForcefieldFFML>
<?xml version="1.0" encoding="UTF-8"?>
<!DOCTYPE ffml SYSTEM "Ffml.dtd">
<ffml version="1.0">
<forcefield name="MMFF" derivedFrom="MMFF" base="MMFF">
<atomTypes>
<atomType
name="C100"
element="C"
mass="12.011"
annotation=""/>
<atomType
name="O101"
element="O"
mass="16"
annotation=""/>
<atomType
name="H102"
element="H"
mass="1.008"
annotation=""/>
</atomTypes>
<parameters>
</parameters>
</forcefield>
</ffml>

> <Initial Potential Energy>
220.36313

> <Initial RMS Gradient>
34.13595

> <Minimization Criteria>
CONJUG> Minimization exiting with gradient tolerance ( 0.0100000) satisfied.

> <CHARMm Energy>
115.56166

> <Potential Energy>
115.56166

> <RMS Gradient>
0.0091

> <Bond Energy>
6.80971

> <Angle Energy>
25.29046

> <STRBend>
1.04535

> <Dihedral Energy>
7.31922

> <OOPLane>
0.03007

> <Van der Waals Energy>
66.30174

> <Electrostatic Energy>
8.76511

> <Hydrogen Bond Energy>
0

> <Solvation Free Energy>
0

> <HasGasteigerCharges>
true

> <REMARK99>
REMARK  99  MacroMolecule created from Mol2 file
REMARK  99  CHEMBL2204687
REMARK  99  PROTEIN
REMARK  99  GASTEIGER
REMARK  99
REMARK  99

$$$$
CHEMBL5087514
  SciTegic05292516403D

 48 51  0  0  0  0            999 V2000
    8.6336  -10.0008   -0.1031 C   0  0
    9.7733   -9.1278   -0.6664 C   0  0
    8.8961  -10.9868    0.5778 O   0  0
    7.3797   -9.4819   -0.3943 N   0  0
    6.1039  -10.0257   -0.1329 C   0  0
    5.0717   -9.0713   -0.0395 C   0  0
    3.7586   -9.4413    0.2545 C   0  0
    3.4576  -10.7806    0.4469 C   0  0
    4.4535  -11.7453    0.3194 C   0  0
    5.7817  -11.3887   -0.0017 C   0  0
   10.9789   -9.8851   -0.7543 O   0  0
   13.1022   -9.8860    0.2167 C   0  0
   12.1294   -9.1958   -0.5078 C   0  0
   12.3887   -7.9145   -0.9822 C   0  0
   13.6159   -7.3106   -0.7031 C   0  0
   14.5985   -7.9871    0.0390 C   0  0
   15.8441   -7.4025    0.3084 C   0  0
   16.8211   -8.1005    1.0289 C   0  0
   16.5521   -9.3827    1.5074 C   0  0
   15.3171   -9.9757    1.2459 C   0  0
   14.3369   -9.2930    0.5082 C   0  0
   18.1216   -7.4732    1.2428 C   0  0
   20.6930   -6.8622    0.7271 S   0  0
   21.4503   -7.6726   -0.6226 C   0  0
   20.6191   -8.6106   -1.1302 N   0  0
   19.3877   -8.7476   -0.5690 C   0  0
   19.2189   -7.7458    0.5261 C   0  0
   18.5803   -9.5839   -0.9325 O   0  0
   22.5686   -7.4182   -1.0339 O   0  0
    6.7396  -12.5266   -0.2200 C   0  0
    1.6890  -11.2988    0.8605 Br  0  0
    9.5026   -8.7795   -1.6693 H   0  0
    9.8702   -8.2684    0.0099 H   0  0
    7.3959   -8.5235   -0.7191 H   0  0
    5.2850   -8.0115   -0.1602 H   0  0
    2.9892   -8.6793    0.3411 H   0  0
    4.1975  -12.7955    0.4494 H   0  0
   12.8873  -10.8969    0.5554 H   0  0
   11.6706   -7.3811   -1.5934 H   0  0
   13.8108   -6.3116   -1.0867 H   0  0
   16.0636   -6.4033   -0.0629 H   0  0
   17.3051   -9.9383    2.0615 H   0  0
   15.1282  -10.9835    1.6094 H   0  0
   18.1277   -6.6962    2.0034 H   0  0
   20.9207   -9.1934   -1.8945 H   0  0
    6.2063  -13.4240   -0.5561 H   0  0
    7.2541  -12.7797    0.7109 H   0  0
    7.4565  -12.2995   -1.0141 H   0  0
  1  2  1  0
  1  3  2  0
  1  4  1  0
  2 11  1  0
  2 32  1  0
  2 33  1  0
  4  5  1  0
  4 34  1  0
  5  6  1  0
  5 10  2  0
  6  7  2  0
  6 35  1  0
  7  8  1  0
  7 36  1  0
  8  9  2  0
  8 31  1  0
  9 10  1  0
  9 37  1  0
 10 30  1  0
 11 13  1  0
 12 13  1  0
 12 21  2  0
 12 38  1  0
 13 14  2  0
 14 15  1  0
 14 39  1  0
 15 16  2  0
 15 40  1  0
 16 17  1  0
 16 21  1  0
 17 18  2  0
 17 41  1  0
 18 19  1  0
 18 22  1  0
 19 20  2  0
 19 42  1  0
 20 21  1  0
 20 43  1  0
 22 27  2  0
 22 44  1  0
 23 24  1  0
 23 27  1  0
 24 25  1  0
 24 29  2  0
 25 26  1  0
 25 45  1  0
 26 27  1  0
 26 28  2  0
 30 46  1  0
 30 47  1  0
 30 48  1  0
M  END
> <Name>
CHEMBL5087514

> <Clean Energy>
41.403702

> <chembl_id>
CHEMBL5087514

> <chembl_pref_name>
None

> <efficacy>
0.32

> <Forcefield>
MMFF

> <ForcefieldBase>
MMFF

> <ForcefieldFFML>
<?xml version="1.0" encoding="UTF-8"?>
<!DOCTYPE ffml SYSTEM "Ffml.dtd">
<ffml version="1.0">
<forcefield name="MMFF" derivedFrom="MMFF" base="MMFF">
<atomTypes>
<atomType
name="C100"
element="C"
mass="12.011"
annotation=""/>
<atomType
name="O101"
element="O"
mass="16"
annotation=""/>
<atomType
name="N102"
element="N"
mass="14.007"
annotation=""/>
<atomType
name="S103"
element="S"
mass="32.066"
annotation=""/>
<atomType
name="Br104"
element="Br"
mass="79.904"
annotation=""/>
<atomType
name="H105"
element="H"
mass="1.008"
annotation=""/>
</atomTypes>
<parameters>
</parameters>
</forcefield>
</ffml>

> <Initial Potential Energy>
89.28437

> <Initial RMS Gradient>
31.89627

> <Minimization Criteria>
CONJUG> Minimization exiting with gradient tolerance ( 0.0100000) satisfied.

> <CHARMm Energy>
19.00611

> <Potential Energy>
19.00611

> <RMS Gradient>
0.00887

> <Bond Energy>
6.3639

> <Angle Energy>
19.25136

> <STRBend>
-0.09715

> <Dihedral Energy>
16.66301

> <OOPLane>
0.24009

> <Van der Waals Energy>
57.12712

> <Electrostatic Energy>
-80.54223

> <Hydrogen Bond Energy>
0

> <Solvation Free Energy>
0

> <HasGasteigerCharges>
true

> <REMARK99>
REMARK  99  MacroMolecule created from Mol2 file
REMARK  99  CHEMBL5087514
REMARK  99  PROTEIN
REMARK  99  GASTEIGER
REMARK  99
REMARK  99

$$$$
CHEMBL1956360
  SciTegic05292516403D

 35 36  0  0  0  0            999 V2000
    2.5364   -1.8252   -0.3067 C   0  0
    2.4119   -2.9772    0.4669 C   0  0
    3.5423   -3.7534    0.7631 C   0  0
    4.8003   -3.3484    0.2779 C   0  0
    4.9288   -2.1903   -0.4873 C   0  0
    3.7894   -1.4394   -0.7832 C   0  0
    6.0848   -1.7042   -1.0254 O   0  0
    7.3445   -2.1898   -0.5390 C   0  0  1  0  0  0
    7.8245   -3.3252   -1.4549 C   0  0
    8.9544   -4.1342   -0.8634 C   0  0
   10.2712   -3.9347   -1.3009 C   0  0
   11.3226   -4.6507   -0.7280 C   0  0
   11.0699   -5.5764    0.2816 C   0  0
    9.7640   -5.7906    0.7165 C   0  0
    8.7099   -5.0745    0.1468 C   0  0
    8.3332   -1.0168   -0.6046 C   0  0
    9.4443   -1.1893    0.1566 O   0  0
    8.1742    0.0042   -1.2596 O   0  0
    3.4032   -5.0042    1.5950 C   0  0
    2.5056   -5.8846    1.0745 F   0  0
    4.5709   -5.6973    1.7248 F   0  0
    2.9856   -4.7426    2.8635 F   0  0
    1.6593   -1.2258   -0.5409 H   0  0
    1.4283   -3.2705    0.8339 H   0  0
    5.6597   -3.9703    0.5029 H   0  0
    3.8810   -0.5391   -1.3881 H   0  0
    7.2682   -2.4722    0.5181 H   0  0
    6.9971   -4.0087   -1.6856 H   0  0
    8.1254   -2.9190   -2.4301 H   0  0
   10.4920   -3.2154   -2.0888 H   0  0
   12.3413   -4.4904   -1.0736 H   0  0
   11.8915   -6.1386    0.7204 H   0  0
    9.5658   -6.5242    1.4946 H   0  0
    7.6981   -5.2725    0.4929 H   0  0
    9.5075   -2.0521    0.6130 H   0  0
  1  2  2  0
  1 23  1  0
  2  3  1  0
  2 24  1  0
  3  4  2  0
  3 19  1  0
  4  5  1  0
  4 25  1  0
  5  6  2  0
  5  7  1  0
  6  1  1  0
  6 26  1  0
  7  8  1  0
  8  9  1  0
  8 16  1  0
  8 27  1  0
  9 10  1  0
  9 28  1  0
  9 29  1  0
 10 11  2  0
 11 12  1  0
 11 30  1  0
 12 13  2  0
 12 31  1  0
 13 14  1  0
 13 32  1  0
 14 15  2  0
 14 33  1  0
 15 10  1  0
 15 34  1  0
 16 17  1  0
 16 18  2  0
 17 35  1  0
 19 20  1  0
 19 21  1  0
 19 22  1  0
M  END
> <Name>
CHEMBL1956360

> <Clean Energy>
32.873901

> <chembl_id>
CHEMBL1956360

> <chembl_pref_name>
None

> <efficacy>
0.417853751

> <Forcefield>
MMFF

> <ForcefieldBase>
MMFF

> <ForcefieldFFML>
<?xml version="1.0" encoding="UTF-8"?>
<!DOCTYPE ffml SYSTEM "Ffml.dtd">
<ffml version="1.0">
<forcefield name="MMFF" derivedFrom="MMFF" base="MMFF">
<atomTypes>
<atomType
name="C100"
element="C"
mass="12.011"
annotation=""/>
<atomType
name="O101"
element="O"
mass="16"
annotation=""/>
<atomType
name="F102"
element="F"
mass="18.998"
annotation=""/>
<atomType
name="H103"
element="H"
mass="1.008"
annotation=""/>
</atomTypes>
<parameters>
</parameters>
</forcefield>
</ffml>

> <Initial Potential Energy>
143.30443

> <Initial RMS Gradient>
31.62217

> <Minimization Criteria>
CONJUG> Minimization exiting with gradient tolerance ( 0.0100000) satisfied.

> <CHARMm Energy>
75.76373

> <Potential Energy>
75.76373

> <RMS Gradient>
0.00867

> <Bond Energy>
3.98914

> <Angle Energy>
9.89368

> <STRBend>
0.14328

> <Dihedral Energy>
-0.10358

> <OOPLane>
0.01269

> <Van der Waals Energy>
37.41669

> <Electrostatic Energy>
24.41183

> <Hydrogen Bond Energy>
0

> <Solvation Free Energy>
0

> <HasGasteigerCharges>
true

> <REMARK99>
REMARK  99  MacroMolecule created from Mol2 file
REMARK  99  CHEMBL1956360
REMARK  99  PROTEIN
REMARK  99  GASTEIGER
REMARK  99
REMARK  99

$$$$
CHEMBL1946754
  SciTegic05292516403D

 54 58  0  0  0  0            999 V2000
    6.8659  -15.4443   -0.5549 C   0  0
    6.8913  -16.8121   -0.1983 C   0  0
    8.0826  -17.3765    0.2993 C   0  0
    7.9851  -14.6199   -0.3882 C   0  0
    9.1322  -15.1807    0.1423 C   0  0
    9.1788  -16.5456    0.4638 C   0  0
   10.4593  -16.8297    0.9622 N   0  0
   11.2087  -15.6301    1.0078 C   0  0
   10.3948  -14.6280    0.4349 N   0  0
   12.3171  -15.5206    1.5096 O   0  0
   10.7568  -13.3017    0.2343 C   0  0
   10.9579  -18.0948    1.4415 C   0  0
   12.0033  -18.6911    0.5192 C   0  0
   11.6326  -19.5053   -0.5581 C   0  0
   12.6028  -19.9986   -1.4379 C   0  0
   13.9539  -19.6847   -1.2552 C   0  0
   14.3428  -18.8993   -0.1651 C   0  0
   13.3671  -18.3932    0.7012 C   0  0
   15.6296  -18.4857    0.0691 O   0  0
   16.5285  -19.5411    0.4292 C   0  0  1  0  0  0
   17.7945  -19.4249   -0.4122 C   0  0
   18.4139  -20.6156   -0.6104 O   0  0
   18.2835  -18.3941   -0.8507 O   0  0
   16.8962  -19.3749    1.8983 C   0  0
    5.6501  -17.6612   -0.3848 C   0  0
    5.6013  -18.2235   -1.6229 F   0  0
    5.6024  -18.7004    0.4959 F   0  0
    4.4823  -16.9758   -0.2270 F   0  0
   15.0829  -20.2599   -2.4287 Cl  0  0
   10.5766  -11.1312    0.0072 O   0  0
    9.8634  -12.3012    0.1465 N   0  0
   11.9014  -11.4086   -0.0542 C   0  0
   12.0809  -12.7780    0.0638 C   0  0
   13.3903  -13.2782   -0.0554 C   0  0
   14.4398  -12.3750   -0.2402 C   0  0
   14.2188  -10.9979   -0.3156 C   0  0
   12.9248  -10.4734   -0.2273 C   0  0
   16.0358  -12.9936   -0.3914 Cl  0  0
    5.9529  -15.0096   -0.9637 H   0  0
    8.1318  -18.4310    0.5536 H   0  0
    7.9181  -13.5734   -0.6686 H   0  0
   11.4080  -17.9302    2.4286 H   0  0
   10.1380  -18.8054    1.5896 H   0  0
   10.5865  -19.7490   -0.7343 H   0  0
   12.2938  -20.6146   -2.2801 H   0  0
   13.6785  -17.7369    1.5139 H   0  0
   16.0823  -20.5314    0.2763 H   0  0
   17.9958  -21.4119   -0.2318 H   0  0
   17.6066  -20.1429    2.2199 H   0  0
   16.0026  -19.4377    2.5283 H   0  0
   17.3471  -18.3930    2.0831 H   0  0
   13.5999  -14.3428   -0.0266 H   0  0
   15.0617  -10.3221   -0.4575 H   0  0
   12.7267   -9.4077   -0.3044 H   0  0
  1  2  2  0
  1 39  1  0
  2  3  1  0
  2 25  1  0
  3  6  2  0
  3 40  1  0
  4  1  1  0
  4 41  1  0
  5  4  2  0
  5  6  1  0
  6  7  1  0
  7  8  1  0
  7 12  1  0
  8  9  1  0
  8 10  2  0
  9  5  1  0
  9 11  1  0
 11 33  1  0
 12 13  1  0
 12 42  1  0
 12 43  1  0
 13 14  2  0
 14 15  1  0
 14 44  1  0
 15 16  2  0
 15 45  1  0
 16 17  1  0
 16 29  1  0
 17 18  2  0
 17 19  1  0
 18 13  1  0
 18 46  1  0
 19 20  1  0
 20 21  1  0
 20 24  1  0
 20 47  1  0
 21 22  1  0
 21 23  2  0
 22 48  1  0
 24 49  1  0
 24 50  1  0
 24 51  1  0
 25 26  1  0
 25 27  1  0
 25 28  1  0
 30 31  1  0
 31 11  2  0
 32 30  1  0
 32 33  2  0
 33 34  1  0
 34 35  2  0
 34 52  1  0
 35 36  1  0
 35 38  1  0
 36 37  2  0
 36 53  1  0
 37 32  1  0
 37 54  1  0
M  END
> <Name>
CHEMBL1946754

> <Clean Energy>
88.5522

> <chembl_id>
CHEMBL1946754

> <chembl_pref_name>
None

> <efficacy>
0.36

> <Forcefield>
MMFF

> <ForcefieldBase>
MMFF

> <ForcefieldFFML>
<?xml version="1.0" encoding="UTF-8"?>
<!DOCTYPE ffml SYSTEM "Ffml.dtd">
<ffml version="1.0">
<forcefield name="MMFF" derivedFrom="MMFF" base="MMFF">
<atomTypes>
<atomType
name="C100"
element="C"
mass="12.011"
annotation=""/>
<atomType
name="N101"
element="N"
mass="14.007"
annotation=""/>
<atomType
name="O102"
element="O"
mass="16"
annotation=""/>
<atomType
name="F103"
element="F"
mass="18.998"
annotation=""/>
<atomType
name="Cl104"
element="Cl"
mass="35.453"
annotation=""/>
<atomType
name="H105"
element="H"
mass="1.008"
annotation=""/>
</atomTypes>
<parameters>
</parameters>
</forcefield>
</ffml>

> <Initial Potential Energy>
204.12692

> <Initial RMS Gradient>
34.6381

> <Minimization Criteria>
STEEPD> Minimization exiting with gradient tolerance ( 3.0000000) satisfied.

> <CHARMm Energy>
91.89551

> <Potential Energy>
91.89551

> <RMS Gradient>
0.06988

> <Bond Energy>
7.70292

> <Angle Energy>
36.41408

> <STRBend>
-2.32222

> <Dihedral Energy>
10.50076

> <OOPLane>
0.21688

> <Van der Waals Energy>
58.34896

> <Electrostatic Energy>
-18.96586

> <Hydrogen Bond Energy>
0

> <Solvation Free Energy>
0

> <HasGasteigerCharges>
true

> <REMARK99>
REMARK  99  MacroMolecule created from Mol2 file
REMARK  99  CHEMBL1946754
REMARK  99  PROTEIN
REMARK  99  GASTEIGER
REMARK  99
REMARK  99

$$$$
CHEMBL4092600
  SciTegic05292516403D

 55 58  0  0  0  0            999 V2000
   11.3410   -6.1868   -0.6613 C   0  0
   10.9536   -7.4610   -0.2538 C   0  0
   11.9180   -8.3786    0.1573 C   0  0
   13.2708   -8.0217    0.1608 C   0  0
   13.6818   -6.7430   -0.2460 C   0  0
   12.6948   -5.8312   -0.6571 C   0  0
   15.1038   -6.3903   -0.2333 C   0  0
   16.1548   -7.1204    0.1022 N   0  0
   17.2385   -6.2687   -0.0712 C   0  0
   16.7766   -5.0498   -0.5120 C   0  0
   15.4217   -5.1129   -0.6202 O   0  0
   18.6454   -6.7072    0.2072 C   0  0
   19.6045   -5.6810   -0.1009 O   0  0
   20.9320   -5.9873    0.0408 C   0  0
   21.4592   -7.1772    0.5397 C   0  0
   22.8534   -7.3446    0.6149 C   0  0
   23.7416   -6.3331    0.2052 C   0  0
   23.1943   -5.1483   -0.3000 C   0  0
   21.8066   -4.9780   -0.3712 C   0  0
   25.2377   -6.5976    0.2415 C   0  0
   26.1351   -5.3847    0.3691 C   0  0
   26.7482   -4.8283   -0.7643 C   0  0
   27.5516   -3.6886   -0.6569 C   0  0
   27.7353   -3.0840    0.5854 C   0  0
   27.1667   -3.6564    1.7236 C   0  0
   26.3617   -4.7922    1.6177 C   0  0
   28.4706   -1.9562    0.8110 O   0  0
   28.4667   -0.9689   -0.2176 C   0  0  1  0  0  0
   28.6029    0.3842    0.4758 C   0  0
   29.6070   -1.1018   -1.2324 C   0  0
   30.6386   -1.7358   -1.0667 O   0  0
   29.3806   -0.4106   -2.3823 O   0  0
   10.5920   -5.4674   -0.9830 H   0  0
    9.9021   -7.7383   -0.2565 H   0  0
   11.6222   -9.3747    0.4766 H   0  0
   14.0064   -8.7545    0.4867 H   0  0
   12.9719   -4.8296   -0.9801 H   0  0
   17.2388   -4.1098   -0.7739 H   0  0
   18.7183   -6.9650    1.2706 H   0  0
   18.8489   -7.5956   -0.4031 H   0  0
   20.8276   -7.9971    0.8742 H   0  0
   23.2480   -8.2856    0.9939 H   0  0
   23.8330   -4.3402   -0.6478 H   0  0
   21.4035   -4.0471   -0.7635 H   0  0
   25.4655   -7.2686    1.0809 H   0  0
   25.5035   -7.1534   -0.6673 H   0  0
   26.5875   -5.2805   -1.7413 H   0  0
   28.0384   -3.3134   -1.5513 H   0  0
   27.3393   -3.2051    2.6979 H   0  0
   25.9031   -5.2064    2.5130 H   0  0
   27.5079   -0.9865   -0.7527 H   0  0
   28.5776    1.2110   -0.2410 H   0  0
   29.5457    0.4445    1.0318 H   0  0
   27.7954    0.5263    1.2022 H   0  0
   28.4969    0.0052   -2.4271 H   0  0
  1  2  2  0
  1 33  1  0
  2  3  1  0
  2 34  1  0
  3  4  2  0
  3 35  1  0
  4  5  1  0
  4 36  1  0
  5  6  2  0
  5  7  1  0
  6  1  1  0
  6 37  1  0
  7  8  2  0
  8  9  1  0
  9 10  2  0
  9 12  1  0
 10 11  1  0
 10 38  1  0
 11  7  1  0
 12 13  1  0
 12 39  1  0
 12 40  1  0
 13 14  1  0
 14 15  2  0
 15 16  1  0
 15 41  1  0
 16 17  2  0
 16 42  1  0
 17 18  1  0
 17 20  1  0
 18 19  2  0
 18 43  1  0
 19 14  1  0
 19 44  1  0
 20 21  1  0
 20 45  1  0
 20 46  1  0
 21 22  2  0
 22 23  1  0
 22 47  1  0
 23 24  2  0
 23 48  1  0
 24 25  1  0
 24 27  1  0
 25 26  2  0
 25 49  1  0
 26 21  1  0
 26 50  1  0
 27 28  1  0
 28 29  1  0
 28 30  1  0
 28 51  1  0
 29 52  1  0
 29 53  1  0
 29 54  1  0
 30 31  2  0
 30 32  1  0
 32 55  1  0
M  END
> <Name>
CHEMBL4092600

> <Clean Energy>
38.652802

> <chembl_id>
CHEMBL4092600

> <chembl_pref_name>
None

> <efficacy>
0.17

> <Forcefield>
MMFF

> <ForcefieldBase>
MMFF

> <ForcefieldFFML>
<?xml version="1.0" encoding="UTF-8"?>
<!DOCTYPE ffml SYSTEM "Ffml.dtd">
<ffml version="1.0">
<forcefield name="MMFF" derivedFrom="MMFF" base="MMFF">
<atomTypes>
<atomType
name="C100"
element="C"
mass="12.011"
annotation=""/>
<atomType
name="N101"
element="N"
mass="14.007"
annotation=""/>
<atomType
name="O102"
element="O"
mass="16"
annotation=""/>
<atomType
name="H103"
element="H"
mass="1.008"
annotation=""/>
</atomTypes>
<parameters>
</parameters>
</forcefield>
</ffml>

> <Initial Potential Energy>
198.72176

> <Initial RMS Gradient>
30.04454

> <Minimization Criteria>
CONJUG> Minimization exiting with gradient tolerance ( 0.0100000) satisfied.

> <CHARMm Energy>
109.71185

> <Potential Energy>
109.71185

> <RMS Gradient>
0.00884

> <Bond Energy>
6.85833

> <Angle Energy>
17.28969

> <STRBend>
0.03062

> <Dihedral Energy>
0.23991

> <OOPLane>
0.04724

> <Van der Waals Energy>
58.94152

> <Electrostatic Energy>
26.30453

> <Hydrogen Bond Energy>
0

> <Solvation Free Energy>
0

> <HasGasteigerCharges>
true

> <REMARK99>
REMARK  99  MacroMolecule created from Mol2 file
REMARK  99  CHEMBL4092600
REMARK  99  PROTEIN
REMARK  99  GASTEIGER
REMARK  99
REMARK  99

$$$$
CHEMBL1946753
  SciTegic05292516403D

 57 61  0  0  0  0            999 V2000
   -5.7545  -15.2245   -0.6340 C   0  0
   -5.7941  -16.5748   -0.2193 C   0  0
   -4.6168  -17.1627    0.2908 C   0  0
   -4.5862  -14.4505   -0.5336 C   0  0
   -3.4487  -15.0328   -0.0005 C   0  0
   -3.4695  -16.3806    0.3871 C   0  0
   -2.1956  -16.7034    0.8807 N   0  0
   -1.3858  -15.5381    0.8726 C   0  0
   -2.1533  -14.5194    0.2653 N   0  0
   -0.2703  -15.4721    1.3648 O   0  0
   -1.7479  -13.2008    0.0430 C   0  0
   -1.7518  -17.9682    1.4152 C   0  0
   -0.6706  -18.6044    0.5625 C   0  0
   -0.9947  -19.3248   -0.5904 C   0  0
    0.0195  -19.8154   -1.4190 C   0  0
    1.3701  -19.5997   -1.1092 C   0  0
    1.7154  -18.9273    0.0677 C   0  0
    0.6890  -18.4198    0.8792 C   0  0
    2.9748  -18.5864    0.4840 O   0  0
    3.9741  -19.6108    0.5133 C   0  0  1  0  0  0
    5.1406  -19.2027   -0.3846 C   0  0
    5.9736  -20.2322   -0.6846 O   0  0
    5.3736  -18.0736   -0.7924 O   0  0
    4.4724  -19.7147    1.9505 C   0  0
   -7.1044  -17.3491   -0.2915 C   0  0
   -7.8692  -17.0403   -1.3805 F   0  0
   -6.9056  -18.6984   -0.3458 F   0  0
   -7.9139  -17.1340    0.7871 F   0  0
    2.5272  -20.1164   -2.2825 Cl  0  0
   -1.9328  -11.0462   -0.3175 O   0  0
   -2.6337  -12.2188   -0.2035 N   0  0
   -0.6087  -11.2892   -0.1884 C   0  0
   -0.4129  -12.6462    0.0236 C   0  0
    0.9260  -13.0838    0.1169 C   0  0
    1.9721  -12.1461    0.0336 C   0  0
    1.7145  -10.7806   -0.1423 C   0  0
    0.3962  -10.3205   -0.2712 C   0  0
    2.8641   -9.8215   -0.2624 C   0  0
   -6.6545  -14.7599   -1.0377 H   0  0
   -4.6196  -18.2000    0.6122 H   0  0
   -4.6169  -13.4165   -0.8623 H   0  0
   -1.3578  -17.7876    2.4232 H   0  0
   -2.5910  -18.6624    1.5272 H   0  0
   -2.0340  -19.4840   -0.8716 H   0  0
   -0.2530  -20.3433   -2.3314 H   0  0
    0.9622  -17.8314    1.7558 H   0  0
    3.5819  -20.5848    0.2027 H   0  0
    5.7500  -21.1101   -0.3202 H   0  0
    5.2535  -20.4747    2.0508 H   0  0
    3.6475  -19.9686    2.6248 H   0  0
    4.8816  -18.7577    2.2943 H   0  0
    1.1799  -14.1328    0.2338 H   0  0
    3.0045  -12.4956    0.1041 H   0  0
    0.1590   -9.2714   -0.4355 H   0  0
    2.5646   -8.8119    0.0381 H   0  0
    3.2186   -9.7901   -1.2973 H   0  0
    3.6915  -10.1216    0.3892 H   0  0
  1  2  2  0
  1 39  1  0
  2  3  1  0
  2 25  1  0
  3  6  2  0
  3 40  1  0
  4  1  1  0
  4 41  1  0
  5  4  2  0
  5  6  1  0
  6  7  1  0
  7  8  1  0
  7 12  1  0
  8  9  1  0
  8 10  2  0
  9  5  1  0
  9 11  1  0
 11 33  1  0
 12 13  1  0
 12 42  1  0
 12 43  1  0
 13 14  2  0
 14 15  1  0
 14 44  1  0
 15 16  2  0
 15 45  1  0
 16 17  1  0
 16 29  1  0
 17 18  2  0
 17 19  1  0
 18 13  1  0
 18 46  1  0
 19 20  1  0
 20 21  1  0
 20 24  1  0
 20 47  1  0
 21 22  1  0
 21 23  2  0
 22 48  1  0
 24 49  1  0
 24 50  1  0
 24 51  1  0
 25 26  1  0
 25 27  1  0
 25 28  1  0
 30 31  1  0
 31 11  2  0
 32 30  1  0
 32 33  2  0
 33 34  1  0
 34 35  2  0
 34 52  1  0
 35 36  1  0
 35 53  1  0
 36 37  2  0
 36 38  1  0
 37 32  1  0
 37 54  1  0
 38 55  1  0
 38 56  1  0
 38 57  1  0
M  END
> <Name>
CHEMBL1946753

> <Clean Energy>
88.649597

> <chembl_id>
CHEMBL1946753

> <chembl_pref_name>
None

> <efficacy>
0.37

> <Forcefield>
MMFF

> <ForcefieldBase>
MMFF

> <ForcefieldFFML>
<?xml version="1.0" encoding="UTF-8"?>
<!DOCTYPE ffml SYSTEM "Ffml.dtd">
<ffml version="1.0">
<forcefield name="MMFF" derivedFrom="MMFF" base="MMFF">
<atomTypes>
<atomType
name="C100"
element="C"
mass="12.011"
annotation=""/>
<atomType
name="N101"
element="N"
mass="14.007"
annotation=""/>
<atomType
name="O102"
element="O"
mass="16"
annotation=""/>
<atomType
name="F103"
element="F"
mass="18.998"
annotation=""/>
<atomType
name="Cl104"
element="Cl"
mass="35.453"
annotation=""/>
<atomType
name="H105"
element="H"
mass="1.008"
annotation=""/>
</atomTypes>
<parameters>
</parameters>
</forcefield>
</ffml>

> <Initial Potential Energy>
211.03056

> <Initial RMS Gradient>
33.75819

> <Minimization Criteria>
STEEPD> Minimization exiting with gradient tolerance ( 3.0000000) satisfied.

> <CHARMm Energy>
97.23282

> <Potential Energy>
97.23282

> <RMS Gradient>
0.02988

> <Bond Energy>
9.54771

> <Angle Energy>
41.40886

> <STRBend>
-2.38742

> <Dihedral Energy>
5.35889

> <OOPLane>
0.28571

> <Van der Waals Energy>
60.27812

> <Electrostatic Energy>
-17.25906

> <Hydrogen Bond Energy>
0

> <Solvation Free Energy>
0

> <HasGasteigerCharges>
true

> <REMARK99>
REMARK  99  MacroMolecule created from Mol2 file
REMARK  99  CHEMBL1946753
REMARK  99  PROTEIN
REMARK  99  GASTEIGER
REMARK  99
REMARK  99

$$$$
CHEMBL198034
  SciTegic05292516403D

 51 51  0  0  0  0            999 V2000
    1.4512    0.1845   -0.0892 C   0  0
    1.7614   -1.1784   -0.0517 C   0  0
   11.2134    0.6185    1.9445 C   0  0
    0.8429   -2.1540    0.1860 N   0  0
   12.1445   -0.2397    1.8271 O   0  5
   11.2499    1.7126    2.5786 O   0  0
    2.5078    1.2138   -0.4344 C   0  0  1  0  0  0
    3.0610   -1.5435   -0.3282 O   0  0
    0.1236    0.5410    0.1847 C   0  0
    1.8814    2.4902   -0.6902 O   0  0
    9.9241    0.3012    1.1704 C   0  0
   -0.4214   -1.7603    0.4389 C   0  0
    3.6009    1.3830    0.6568 C   0  0
    3.3407   -2.9221   -0.0833 C   0  0
    8.6332    0.9894    1.6309 C   0  0
   -0.8257   -0.4393    0.4552 C   0  0
    5.0149    1.0958    0.1094 C   0  0
    4.8439   -3.1519   -0.2423 C   0  0
    6.8340   -3.1121   -1.7959 C   0  0
    5.3291   -2.8750   -1.6682 C   0  0
    7.4715    0.7259    0.6565 C   0  0
    6.1194    1.2516    1.1698 C   0  0
    7.3247   -2.8284   -3.2065 C   0  0
    2.9573    0.9195   -1.3911 H   0  0
   -0.1806    1.5857    0.1763 H   0  0
    2.6287    3.0980   -0.8440 H   0  0
   10.1219    0.5716    0.1252 H   0  0
    9.7721   -0.7854    1.1936 H   0  0
   -1.1255   -2.5632    0.6346 H   0  0
    3.5820    2.4026    1.0610 H   0  0
    3.4162    0.7066    1.5005 H   0  0
    3.0584   -3.1918    0.9423 H   0  0
    2.7924   -3.5522   -0.7942 H   0  0
    8.3715    0.6258    2.6319 H   0  0
    8.7900    2.0710    1.7169 H   0  0
   -1.8561   -0.1750    0.6631 H   0  0
    5.0487    0.0782   -0.2916 H   0  0
    5.2245    1.7735   -0.7273 H   0  0
    5.3830   -2.4932    0.4497 H   0  0
    5.0790   -4.1865    0.0328 H   0  0
    7.3739   -2.4681   -1.0921 H   0  0
    7.0713   -4.1497   -1.5338 H   0  0
    5.0997   -1.8406   -1.9495 H   0  0
    4.7931   -3.5257   -2.3699 H   0  0
    7.7030    1.1937   -0.3083 H   0  0
    7.3854   -0.3527    0.4762 H   0  0
    5.8434    0.6999    2.0763 H   0  0
    6.2092    2.3086    1.4462 H   0  0
    8.4027   -3.0043   -3.2753 H   0  0
    7.1317   -1.7879   -3.4869 H   0  0
    6.8270   -3.4785   -3.9331 H   0  0
  2  1  1  0
  3 11  1  0
  4  2  2  0
  4 12  1  0
  5  3  1  0
  6  3  2  0
  7  1  1  0
  7 24  1  0
  8  2  1  0
  9  1  2  0
  9 25  1  0
 10  7  1  0
 10 26  1  0
 11 15  1  0
 11 27  1  0
 11 28  1  0
 12 16  2  0
 12 29  1  0
 13  7  1  0
 13 30  1  0
 13 31  1  0
 14  8  1  0
 14 32  1  0
 14 33  1  0
 15 21  1  0
 15 34  1  0
 15 35  1  0
 16  9  1  0
 16 36  1  0
 17 13  1  0
 17 37  1  0
 17 38  1  0
 18 14  1  0
 18 39  1  0
 18 40  1  0
 19 20  1  0
 19 41  1  0
 19 42  1  0
 20 18  1  0
 20 43  1  0
 20 44  1  0
 21 22  1  0
 21 45  1  0
 21 46  1  0
 22 17  1  0
 22 47  1  0
 22 48  1  0
 23 19  1  0
 23 49  1  0
 23 50  1  0
 23 51  1  0
M  CHG  1   5  -1
M  END
> <Name>
CHEMBL198034

> <Clean Energy>
24.679199

> <chembl_id>
CHEMBL198034

> <chembl_pref_name>
None

> <efficacy>
0.27

> <Forcefield>
MMFF

> <ForcefieldBase>
MMFF

> <ForcefieldFFML>
<?xml version="1.0" encoding="UTF-8"?>
<!DOCTYPE ffml SYSTEM "Ffml.dtd">
<ffml version="1.0">
<forcefield name="MMFF" derivedFrom="MMFF" base="MMFF">
<atomTypes>
<atomType
name="C100"
element="C"
mass="12.011"
annotation=""/>
<atomType
name="N101"
element="N"
mass="14.007"
annotation=""/>
<atomType
name="O102"
element="O"
mass="16"
annotation=""/>
<atomType
name="H103"
element="H"
mass="1.008"
annotation=""/>
</atomTypes>
<parameters>
</parameters>
</forcefield>
</ffml>

> <Initial Potential Energy>
107.32635

> <Initial RMS Gradient>
29.2764

> <Minimization Criteria>
CONJUG> Minimization exiting with gradient tolerance ( 0.0100000) satisfied.

> <CHARMm Energy>
-6.3844

> <Potential Energy>
-6.3844

> <RMS Gradient>
0.00947

> <Bond Energy>
4.42706

> <Angle Energy>
9.50012

> <STRBend>
0.9017

> <Dihedral Energy>
-11.41809

> <OOPLane>
0.0826

> <Van der Waals Energy>
34.70117

> <Electrostatic Energy>
-44.57898

> <Hydrogen Bond Energy>
0

> <Solvation Free Energy>
0

> <HasGasteigerCharges>
true

> <REMARK99>
REMARK  99  MacroMolecule created from Mol2 file
REMARK  99  CHEMBL198034
REMARK  99  PROTEIN
REMARK  99  GASTEIGER
REMARK  99
REMARK  99

$$$$
CHEMBL1817687
  SciTegic05292516403D

 65 67  0  0  0  0            999 V2000
    6.2165  -22.3160    1.2003 C   0  0
    5.1805  -22.6739    0.3409 C   0  0
    5.4156  -22.7935   -1.0281 C   0  0
    6.6916  -22.5668   -1.5419 C   0  0
    7.7404  -22.2153   -0.6857 C   0  0
    7.4924  -22.0886    0.6894 C   0  0
    9.1283  -21.9938   -1.2252 C   0  0
   10.0154  -23.2276   -1.0532 C   0  0
   11.3226  -22.8811   -1.5197 O   0  0
   12.3387  -23.6512   -1.0265 C   0  0
   12.2694  -25.0329   -0.8443 C   0  0
   13.3919  -25.7195   -0.3789 C   0  0
   14.5713  -25.0175   -0.0884 C   0  0
   14.6419  -23.6379   -0.2695 C   0  0
   13.5243  -22.9662   -0.7606 C   0  0
   15.7242  -22.8371   -0.0322 O   0  0
   16.8577  -23.3956    0.6605 C   0  0  2  0  0  0
   17.5530  -22.2021    1.3427 C   0  0
   16.7972  -21.0713    1.3443 O   0  0
   18.6678  -22.2271    1.8482 O   0  0
   17.8105  -24.0530   -0.3482 C   0  0
   18.7424  -25.0733    0.3130 C   0  0
   19.6604  -25.7354   -0.7147 C   0  0
   20.5844  -26.7512   -0.0616 C   0  0
   13.4868  -27.0734   -0.2020 O   0  0
   12.2712  -27.8274   -0.1846 C   0  0
   12.6328  -29.2861    0.1109 C   0  0
   11.4285  -30.1175    0.4743 C   0  0
   10.9750  -30.1326    1.8024 C   0  0
    9.8584  -30.8825    2.1594 C   0  0
    9.1822  -31.6226    1.1918 C   0  0
    9.6237  -31.6122   -0.1304 C   0  0
   10.7441  -30.8624   -0.4913 C   0  0
    6.0195  -22.1972    2.2633 H   0  0
    4.1829  -22.8425    0.7368 H   0  0
    4.5984  -23.0495   -1.6981 H   0  0
    6.8517  -22.6506   -2.6148 H   0  0
    8.2957  -21.8009    1.3664 H   0  0
    9.0875  -21.7109   -2.2851 H   0  0
    9.5853  -21.1307   -0.7231 H   0  0
   10.0445  -23.5229    0.0040 H   0  0
    9.6233  -24.0609   -1.6483 H   0  0
   11.3609  -25.5610   -1.1052 H   0  0
   15.4240  -25.5925    0.2590 H   0  0
   13.5669  -21.8938   -0.9349 H   0  0
   16.5322  -24.0652    1.4652 H   0  0
   15.9478  -21.2552    0.8802 H   0  0
   17.2406  -24.5531   -1.1404 H   0  0
   18.4068  -23.2832   -0.8553 H   0  0
   19.3521  -24.5886    1.0832 H   0  0
   18.1428  -25.8428    0.8145 H   0  0
   19.0602  -26.2372   -1.4825 H   0  0
   20.2644  -24.9732   -1.2208 H   0  0
   21.2319  -27.2131   -0.8135 H   0  0
   20.0117  -27.5457    0.4274 H   0  0
   21.2224  -26.2755    0.6901 H   0  0
   11.6074  -27.4311    0.5938 H   0  0
   11.7688  -27.7698   -1.1578 H   0  0
   13.1501  -29.7196   -0.7548 H   0  0
   13.3663  -29.3341    0.9270 H   0  0
   11.5022  -29.5618    2.5656 H   0  0
    9.5192  -30.9090    3.1924 H   0  0
    8.3180  -32.2198    1.4703 H   0  0
    9.1036  -32.2029   -0.8806 H   0  0
   11.0771  -30.8953   -1.5266 H   0  0
  1  2  2  0
  1 34  1  0
  2  3  1  0
  2 35  1  0
  3  4  2  0
  3 36  1  0
  4  5  1  0
  4 37  1  0
  5  6  2  0
  5  7  1  0
  6  1  1  0
  6 38  1  0
  7  8  1  0
  7 39  1  0
  7 40  1  0
  8  9  1  0
  8 41  1  0
  8 42  1  0
  9 10  1  0
 10 11  2  0
 11 12  1  0
 11 43  1  0
 12 13  2  0
 12 25  1  0
 13 14  1  0
 13 44  1  0
 14 15  2  0
 14 16  1  0
 15 10  1  0
 15 45  1  0
 16 17  1  0
 17 18  1  0
 17 21  1  0
 17 46  1  0
 18 19  1  0
 18 20  2  0
 19 47  1  0
 21 22  1  0
 21 48  1  0
 21 49  1  0
 22 23  1  0
 22 50  1  0
 22 51  1  0
 23 24  1  0
 23 52  1  0
 23 53  1  0
 24 54  1  0
 24 55  1  0
 24 56  1  0
 25 26  1  0
 26 27  1  0
 26 57  1  0
 26 58  1  0
 27 28  1  0
 27 59  1  0
 27 60  1  0
 28 29  2  0
 29 30  1  0
 29 61  1  0
 30 31  2  0
 30 62  1  0
 31 32  1  0
 31 63  1  0
 32 33  2  0
 32 64  1  0
 33 28  1  0
 33 65  1  0
M  END
> <Name>
CHEMBL1817687

> <Clean Energy>
9.82827

> <chembl_id>
CHEMBL1817687

> <chembl_pref_name>
None

> <efficacy>
0.436847104

> <Forcefield>
MMFF

> <ForcefieldBase>
MMFF

> <ForcefieldFFML>
<?xml version="1.0" encoding="UTF-8"?>
<!DOCTYPE ffml SYSTEM "Ffml.dtd">
<ffml version="1.0">
<forcefield name="MMFF" derivedFrom="MMFF" base="MMFF">
<atomTypes>
<atomType
name="C100"
element="C"
mass="12.011"
annotation=""/>
<atomType
name="O101"
element="O"
mass="16"
annotation=""/>
<atomType
name="H102"
element="H"
mass="1.008"
annotation=""/>
</atomTypes>
<parameters>
</parameters>
</forcefield>
</ffml>

> <Initial Potential Energy>
175.87394

> <Initial RMS Gradient>
27.3261

> <Minimization Criteria>
STEEPD> Minimization exiting with gradient tolerance ( 3.0000000) satisfied.

> <CHARMm Energy>
72.52063

> <Potential Energy>
72.52063

> <RMS Gradient>
0.04638

> <Bond Energy>
5.77557

> <Angle Energy>
21.82254

> <STRBend>
0.15996

> <Dihedral Energy>
-3.19655

> <OOPLane>
0.05018

> <Van der Waals Energy>
68.12018

> <Electrostatic Energy>
-20.21125

> <Hydrogen Bond Energy>
0

> <Solvation Free Energy>
0

> <HasGasteigerCharges>
true

> <REMARK99>
REMARK  99  MacroMolecule created from Mol2 file
REMARK  99  CHEMBL1817687
REMARK  99  PROTEIN
REMARK  99  GASTEIGER
REMARK  99
REMARK  99

$$$$
CHEMBL4063529
  SciTegic05292516403D

 47 50  0  0  0  0            999 V2000
   33.1281   -4.6670   -2.8597 O   0  0
   33.1591   -4.7553   -1.4122 S   0  0
   34.3803   -5.0280   -0.6812 O   0  0
   28.8333   -1.4887   -1.3622 C   0  0
   29.0677   -2.6195   -2.1349 C   0  0
   30.2948   -3.2873   -2.0712 C   0  0
   29.8248   -0.9780   -0.5204 C   0  0
   31.0724   -1.6330   -0.4458 C   0  0
   31.2848   -2.7884   -1.2034 C   0  0
   32.5530   -3.2407   -0.8724 N   0  0
   33.2152   -2.3267   -0.0625 C   0  0
   32.2753   -1.3619    0.2630 C   0  0
   31.9684   -5.9567   -0.8786 C   0  0
   34.6585   -2.4388    0.3389 C   0  0
   35.2826   -1.1192    0.8083 C   0  0
   36.7740   -1.2978    1.0894 C   0  0
   27.2996   -0.7061   -1.4517 Cl  0  0
   37.4577    0.0105    1.4002 C   0  0
   37.8918    0.3201    2.4993 O   0  0
   37.5841    0.8191    0.3226 O   0  0
   31.4894   -5.9226    0.4338 C   0  0
   31.5257   -6.9280   -1.7797 C   0  0
   30.5749   -7.8638   -1.3693 C   0  0
   30.0680   -7.8383   -0.0586 C   0  0
   30.5322   -6.8576    0.8521 C   0  0
   30.0258   -6.8378    2.1609 C   0  0
   29.0757   -7.7712    2.5703 C   0  0
   28.6190   -8.7362    1.6769 C   0  0
   29.1111   -8.7702    0.3709 C   0  0
   28.2956   -2.9956   -2.8000 H   0  0
   30.4587   -4.1630   -2.6928 H   0  0
   29.6410   -0.0829    0.0671 H   0  0
   32.4417   -0.5125    0.9156 H   0  0
   34.7527   -3.1862    1.1354 H   0  0
   35.2413   -2.7775   -0.5255 H   0  0
   35.1317   -0.3459    0.0448 H   0  0
   34.7832   -0.7594    1.7166 H   0  0
   36.9185   -1.9693    1.9441 H   0  0
   37.2923   -1.7576    0.2397 H   0  0
   37.2119    0.4366   -0.4948 H   0  0
   31.8598   -5.1791    1.1363 H   0  0
   31.9198   -6.9560   -2.7930 H   0  0
   30.2270   -8.6198   -2.0746 H   0  0
   30.3719   -6.0907    2.8732 H   0  0
   28.6887   -7.7488    3.5863 H   0  0
   27.8784   -9.4654    1.9964 H   0  0
   28.7398   -9.5340   -0.3093 H   0  0
  2  1  2  0
  2 13  1  0
  3  2  2  0
  4  5  2  0
  4 17  1  0
  5  6  1  0
  5 30  1  0
  6  9  2  0
  6 31  1  0
  7  4  1  0
  7 32  1  0
  8  7  2  0
  8  9  1  0
  9 10  1  0
 10  2  1  0
 10 11  1  0
 11 12  2  0
 11 14  1  0
 12  8  1  0
 12 33  1  0
 13 21  2  0
 14 15  1  0
 14 34  1  0
 14 35  1  0
 15 16  1  0
 15 36  1  0
 15 37  1  0
 16 18  1  0
 16 38  1  0
 16 39  1  0
 18 19  2  0
 18 20  1  0
 20 40  1  0
 21 41  1  0
 22 13  1  0
 22 23  2  0
 22 42  1  0
 23 43  1  0
 24 23  1  0
 24 25  1  0
 25 21  1  0
 25 26  2  0
 26 27  1  0
 26 44  1  0
 27 28  2  0
 27 45  1  0
 28 29  1  0
 28 46  1  0
 29 24  2  0
 29 47  1  0
M  END
> <Name>
CHEMBL4063529

> <Clean Energy>
35.530899

> <chembl_id>
CHEMBL4063529

> <chembl_pref_name>
None

> <efficacy>
0.34

> <Forcefield>
MMFF

> <ForcefieldBase>
MMFF

> <ForcefieldFFML>
<?xml version="1.0" encoding="UTF-8"?>
<!DOCTYPE ffml SYSTEM "Ffml.dtd">
<ffml version="1.0">
<forcefield name="MMFF" derivedFrom="MMFF" base="MMFF">
<atomTypes>
<atomType
name="O100"
element="O"
mass="16"
annotation=""/>
<atomType
name="S101"
element="S"
mass="32.066"
annotation=""/>
<atomType
name="C102"
element="C"
mass="12.011"
annotation=""/>
<atomType
name="N103"
element="N"
mass="14.007"
annotation=""/>
<atomType
name="Cl104"
element="Cl"
mass="35.453"
annotation=""/>
<atomType
name="H105"
element="H"
mass="1.008"
annotation=""/>
</atomTypes>
<parameters>
</parameters>
</forcefield>
</ffml>

> <Initial Potential Energy>
613.80587

> <Initial RMS Gradient>
319.43927

> <Minimization Criteria>
STEEPD> Minimization exiting with gradient tolerance ( 3.0000000) satisfied.

> <CHARMm Energy>
109.41936

> <Potential Energy>
109.41936

> <RMS Gradient>
0.03288

> <Bond Energy>
6.22147

> <Angle Energy>
10.81037

> <STRBend>
0.60584

> <Dihedral Energy>
-6.06507

> <OOPLane>
0.02366

> <Van der Waals Energy>
50.41457

> <Electrostatic Energy>
47.40853

> <Hydrogen Bond Energy>
0

> <Solvation Free Energy>
0

> <HasGasteigerCharges>
true

> <REMARK99>
REMARK  99  MacroMolecule created from Mol2 file
REMARK  99  CHEMBL4063529
REMARK  99  PROTEIN
REMARK  99  GASTEIGER
REMARK  99
REMARK  99

$$$$
CHEMBL4098415
  SciTegic05292516403D

 48 50  0  0  0  0            999 V2000
    5.1537  -27.7382   -3.1539 O   0  0
    5.8904  -27.9040   -1.9162 S   0  0
    7.3199  -28.1435   -1.9110 O   0  0
    2.0674  -24.4723   -0.0854 C   0  0
    2.0160  -25.3436   -1.1778 C   0  0
    3.1314  -26.0894   -1.5767 C   0  0
    3.2578  -24.3478    0.6382 C   0  0
    4.3943  -25.0668    0.2392 C   0  0
    4.3284  -25.9277   -0.8590 C   0  0
    5.5934  -26.4837   -0.9908 N   0  0
    6.4709  -25.9214   -0.0743 C   0  0
    5.7106  -25.1052    0.7422 C   0  0
    5.1306  -29.1775   -0.9447 C   0  0
    4.0692  -29.9249   -1.4640 C   0  0
    3.4561  -30.9060   -0.6746 C   0  0
    3.9110  -31.1261    0.6293 C   0  0
    4.9882  -30.3847    1.1276 C   0  0
    5.6061  -29.4152    0.3448 C   0  0
    7.9517  -26.1397   -0.0383 C   0  0
    8.6552  -24.9866    0.6790 C   0  0
   10.1632  -25.0769    0.5761 C   0  0
    0.8551  -23.6938    0.3390 C   0  0
   10.7348  -23.7125    0.8298 C   0  0
   11.0718  -23.2955    1.9263 O   0  0
   10.8452  -22.9657   -0.2944 O   0  0
    0.1914  -23.1141   -0.7055 F   0  0
   -0.0652  -24.4777    0.9681 F   0  0
    1.1309  -22.6748    1.2028 F   0  0
    3.4073  -32.0194    1.5264 O   0  0
    2.3205  -32.8330    1.1165 C   0  0
    2.6752  -33.6292    0.0825 F   0  0
    1.2515  -32.0858    0.7715 F   0  0
    1.9650  -33.6344    2.1475 F   0  0
    1.0920  -25.4448   -1.7438 H   0  0
    3.0537  -26.7430   -2.4412 H   0  0
    3.3153  -23.6824    1.4978 H   0  0
    6.0740  -24.5278    1.5844 H   0  0
    3.7140  -29.7426   -2.4755 H   0  0
    2.6291  -31.4714   -1.1047 H   0  0
    5.3486  -30.5666    2.1388 H   0  0
    6.4478  -28.8617    0.7519 H   0  0
    8.1845  -27.0879    0.4574 H   0  0
    8.3399  -26.1722   -1.0618 H   0  0
    8.3118  -24.0331    0.2537 H   0  0
    8.3758  -24.9670    1.7407 H   0  0
   10.5726  -25.7785    1.3110 H   0  0
   10.4971  -25.4271   -0.4071 H   0  0
   10.3780  -23.3728   -1.0513 H   0  0
  2  1  2  0
  2 13  1  0
  3  2  2  0
  4  5  2  0
  4 22  1  0
  5  6  1  0
  5 34  1  0
  6  9  2  0
  6 35  1  0
  7  4  1  0
  7 36  1  0
  8  7  2  0
  8  9  1  0
  9 10  1  0
 10  2  1  0
 10 11  1  0
 11 12  2  0
 11 19  1  0
 12  8  1  0
 12 37  1  0
 13 14  2  0
 14 15  1  0
 14 38  1  0
 15 16  2  0
 15 39  1  0
 16 17  1  0
 16 29  1  0
 17 18  2  0
 17 40  1  0
 18 13  1  0
 18 41  1  0
 19 20  1  0
 19 42  1  0
 19 43  1  0
 20 21  1  0
 20 44  1  0
 20 45  1  0
 21 23  1  0
 21 46  1  0
 21 47  1  0
 22 26  1  0
 22 27  1  0
 22 28  1  0
 23 24  2  0
 23 25  1  0
 25 48  1  0
 29 30  1  0
 30 31  1  0
 30 32  1  0
 30 33  1  0
M  END
> <Name>
CHEMBL4098415

> <Clean Energy>
48.319599

> <chembl_id>
CHEMBL4098415

> <chembl_pref_name>
None

> <efficacy>
0.32

> <Forcefield>
MMFF

> <ForcefieldBase>
MMFF

> <ForcefieldFFML>
<?xml version="1.0" encoding="UTF-8"?>
<!DOCTYPE ffml SYSTEM "Ffml.dtd">
<ffml version="1.0">
<forcefield name="MMFF" derivedFrom="MMFF" base="MMFF">
<atomTypes>
<atomType
name="O100"
element="O"
mass="16"
annotation=""/>
<atomType
name="S101"
element="S"
mass="32.066"
annotation=""/>
<atomType
name="C102"
element="C"
mass="12.011"
annotation=""/>
<atomType
name="N103"
element="N"
mass="14.007"
annotation=""/>
<atomType
name="F104"
element="F"
mass="18.998"
annotation=""/>
<atomType
name="H105"
element="H"
mass="1.008"
annotation=""/>
</atomTypes>
<parameters>
</parameters>
</forcefield>
</ffml>

> <Initial Potential Energy>
225.91301

> <Initial RMS Gradient>
31.64573

> <Minimization Criteria>
CONJUG> Minimization exiting with gradient tolerance ( 0.0100000) satisfied.

> <CHARMm Energy>
126.56509

> <Potential Energy>
126.56509

> <RMS Gradient>
0.0099

> <Bond Energy>
4.31624

> <Angle Energy>
19.62188

> <STRBend>
0.23671

> <Dihedral Energy>
-3.97349

> <OOPLane>
0.20003

> <Van der Waals Energy>
46.56216

> <Electrostatic Energy>
59.60156

> <Hydrogen Bond Energy>
0

> <Solvation Free Energy>
0

> <HasGasteigerCharges>
true

> <REMARK99>
REMARK  99  MacroMolecule created from Mol2 file
REMARK  99  CHEMBL4098415
REMARK  99  PROTEIN
REMARK  99  GASTEIGER
REMARK  99
REMARK  99

$$$$
CHEMBL2338488
  SciTegic05292516403D

 37 39  0  0  0  0            999 V2000
   12.2935   -4.1947    0.7845 C   0  0
   11.6053   -4.8943   -0.2011 C   0  0
   10.8519   -4.2132   -1.1579 C   0  0
   10.7136   -2.8275   -1.0748 C   0  0
   11.3325   -2.1215   -0.0427 C   0  0
   12.1510   -2.8083    0.8640 C   0  0
   10.0248    0.2554   -0.5569 S   0  0
   11.1605   -0.7293    0.1798 N   0  0
    8.4383   -0.3212   -0.0073 C   0  0
    7.2755    0.0749   -0.6787 C   0  0
    6.0313   -0.4125   -0.2581 C   0  0
    5.9493   -1.2740    0.8332 C   0  0
    7.0985   -1.6487    1.5227 C   0  0
    8.3431   -1.1677    1.1091 C   0  0
   11.6814   -6.2683   -0.1987 O   0  0
    9.5535   -6.6039    0.9279 C   0  0
   10.4664   -6.9017   -0.0818 C   0  0
   10.1400   -7.8821   -1.0115 C   0  0
    8.8913   -8.4861   -0.9295 C   0  0
    8.0276   -8.1023    0.0890 C   0  0
    8.3337   -7.1785    1.0316 N   0  0
    8.4250   -9.6732   -2.0765 Cl  0  0
   10.1283    0.0549   -1.9849 O   0  0
   10.2099    1.5563    0.0496 O   0  0
    4.4171   -1.8644    1.3436 Cl  0  0
    7.2546    1.1969   -1.9919 Cl  0  0
   12.9073   -4.7252    1.5073 H   0  0
   10.3518   -4.7527   -1.9582 H   0  0
   10.1081   -2.3374   -1.8305 H   0  0
   12.6657   -2.2763    1.6600 H   0  0
   11.7517   -0.2458    0.8523 H   0  0
    5.1236   -0.1125   -0.7769 H   0  0
    7.0325   -2.3114    2.3830 H   0  0
    9.2213   -1.4600    1.6775 H   0  0
    9.7772   -5.8698    1.6962 H   0  0
   10.8388   -8.1469   -1.7984 H   0  0
    7.0350   -8.5315    0.1808 H   0  0
  1  2  1  0
  1  6  2  0
  1 27  1  0
  2  3  2  0
  2 15  1  0
  3  4  1  0
  3 28  1  0
  4  5  2  0
  4 29  1  0
  5  6  1  0
  5  8  1  0
  6 30  1  0
  7  8  1  0
  7  9  1  0
  7 23  2  0
  7 24  2  0
  8 31  1  0
  9 10  1  0
  9 14  2  0
 10 11  2  0
 10 26  1  0
 11 12  1  0
 11 32  1  0
 12 13  2  0
 12 25  1  0
 13 14  1  0
 13 33  1  0
 14 34  1  0
 15 17  1  0
 16 17  1  0
 16 21  2  0
 16 35  1  0
 17 18  2  0
 18 19  1  0
 18 36  1  0
 19 20  2  0
 19 22  1  0
 20 21  1  0
 20 37  1  0
M  END
> <Name>
CHEMBL2338488

> <Clean Energy>
33.022999

> <chembl_id>
CHEMBL2338488

> <chembl_pref_name>
None

> <efficacy>
0

> <Forcefield>
MMFF

> <ForcefieldBase>
MMFF

> <ForcefieldFFML>
<?xml version="1.0" encoding="UTF-8"?>
<!DOCTYPE ffml SYSTEM "Ffml.dtd">
<ffml version="1.0">
<forcefield name="MMFF" derivedFrom="MMFF" base="MMFF">
<atomTypes>
<atomType
name="C100"
element="C"
mass="12.011"
annotation=""/>
<atomType
name="S101"
element="S"
mass="32.066"
annotation=""/>
<atomType
name="N102"
element="N"
mass="14.007"
annotation=""/>
<atomType
name="O103"
element="O"
mass="16"
annotation=""/>
<atomType
name="Cl104"
element="Cl"
mass="35.453"
annotation=""/>
<atomType
name="H105"
element="H"
mass="1.008"
annotation=""/>
</atomTypes>
<parameters>
</parameters>
</forcefield>
</ffml>

> <Initial Potential Energy>
589.59626

> <Initial RMS Gradient>
296.35207

> <Minimization Criteria>
STEEPD> Minimization exiting with gradient tolerance ( 3.0000000) satisfied.

> <CHARMm Energy>
12.74037

> <Potential Energy>
12.74037

> <RMS Gradient>
0.05231

> <Bond Energy>
3.67149

> <Angle Energy>
14.04797

> <STRBend>
0.20729

> <Dihedral Energy>
5.91001

> <OOPLane>
0.02624

> <Van der Waals Energy>
52.08366

> <Electrostatic Energy>
-63.20629

> <Hydrogen Bond Energy>
0

> <Solvation Free Energy>
0

> <HasGasteigerCharges>
true

> <REMARK99>
REMARK  99  MacroMolecule created from Mol2 file
REMARK  99  CHEMBL2338488
REMARK  99  PROTEIN
REMARK  99  GASTEIGER
REMARK  99
REMARK  99

$$$$
CHEMBL2322174
  SciTegic05292516403D

 68 74  0  0  0  0            999 V2000
   22.3663  -15.1787   -2.3601 O   0  0
   22.7968  -14.6469   -1.1587 N   0  0
   22.0458  -15.2251   -0.2141 C   0  0
   21.1149  -16.1395   -0.7768 C   0  0
   21.3668  -16.0694   -2.1306 C   0  0
   20.7773  -16.7285   -3.3131 C   0  0
   22.2363  -14.8746    1.2126 C   0  0
   17.7592  -17.3369    0.4944 C   0  0
   18.7475  -16.4516   -0.0280 N   0  0
   18.4382  -15.1261   -0.3720 C   0  0
   17.2032  -14.6175   -0.2183 C   0  0
   16.4495  -16.7462    0.6194 C   0  0
   16.1887  -15.4416    0.3041 C   0  0
   14.9235  -15.0695    0.5830 N   0  0
   14.3644  -16.1496    1.1065 C   0  0
   15.2339  -17.2396    1.0374 N   0  0
   12.9704  -16.1730    1.6544 C   0  0
   12.6530  -14.9106    2.4457 C   0  0
   14.9484  -18.6498    1.2595 C   0  0  1  0  0  0
   13.7874  -20.1899    2.7980 C   0  0
   14.8105  -19.0431    2.7422 C   0  0
   12.9565  -19.9375    1.5777 C   0  0
   13.6286  -19.0963    0.6866 C   0  0
   13.0821  -18.7762   -0.5443 C   0  0
   11.8115  -19.2554   -0.8453 C   0  0
   11.1051  -20.0980    0.0431 C   0  0
   11.7036  -20.4491    1.2674 C   0  0
    9.7564  -20.5713   -0.3238 C   0  0
    8.6578  -20.1998    0.4756 C   0  0
    7.3555  -20.5468    0.1180 C   0  0
    7.1262  -21.2671   -1.0492 C   0  0
    8.1970  -21.6642   -1.8482 C   0  0
    9.5111  -21.3355   -1.4903 C   0  0
   10.5980  -21.8056   -2.3339 C   0  0
   11.2991  -22.9550   -2.0997 N   0  0
   12.3273  -23.0494   -2.9562 N   0  0
   12.2122  -21.9938   -3.7491 N   0  0
   11.1484  -21.2090   -3.3737 N   0  0
   18.0257  -18.4844    0.8452 O   0  0
   20.1152  -16.9842   -0.0749 C   0  0
   20.7654  -17.8147   -3.1812 H   0  0
   21.3477  -16.5043   -4.2198 H   0  0
   19.7485  -16.3880   -3.4645 H   0  0
   22.6195  -15.7367    1.7676 H   0  0
   21.2863  -14.5688    1.6623 H   0  0
   22.9463  -14.0501    1.3345 H   0  0
   19.2262  -14.4954   -0.7674 H   0  0
   16.9749  -13.5904   -0.4788 H   0  0
   12.2609  -16.2587    0.8242 H   0  0
   12.8101  -17.0252    2.3177 H   0  0
   11.6378  -14.9642    2.8517 H   0  0
   12.7159  -14.0170    1.8155 H   0  0
   13.3487  -14.7839    3.2822 H   0  0
   15.7244  -19.2523    0.7765 H   0  0
   14.2832  -21.1629    2.7175 H   0  0
   13.1968  -20.1492    3.7177 H   0  0
   14.4464  -18.2025    3.3466 H   0  0
   15.7725  -19.3363    3.1768 H   0  0
   13.6049  -18.1379   -1.2516 H   0  0
   11.3639  -18.9665   -1.7965 H   0  0
   11.1918  -21.1046    1.9671 H   0  0
    8.8145  -19.6008    1.3714 H   0  0
    6.5184  -20.2358    0.7388 H   0  0
    6.1104  -21.5102   -1.3430 H   0  0
    8.0028  -22.2202   -2.7627 H   0  0
   11.1771  -23.6485   -1.3742 H   0  0
   20.4272  -17.1595    0.9626 H   0  0
   20.0764  -17.9732   -0.5498 H   0  0
  1  2  1  0
  1  5  1  0
  2  3  2  0
  3  4  1  0
  3  7  1  0
  4  5  2  0
  5  6  1  0
  6 41  1  0
  6 42  1  0
  6 43  1  0
  7 44  1  0
  7 45  1  0
  7 46  1  0
  8  9  1  0
  8 39  2  0
  9 10  1  0
  9 40  1  0
 10 11  2  0
 10 47  1  0
 11 13  1  0
 11 48  1  0
 12  8  1  0
 12 13  2  0
 13 14  1  0
 14 15  2  0
 15 16  1  0
 15 17  1  0
 16 12  1  0
 17 18  1  0
 17 49  1  0
 17 50  1  0
 18 51  1  0
 18 52  1  0
 18 53  1  0
 19 16  1  0
 19 23  1  0
 19 54  1  0
 20 21  1  0
 20 55  1  0
 20 56  1  0
 21 19  1  0
 21 57  1  0
 21 58  1  0
 22 20  1  0
 22 23  2  0
 23 24  1  0
 24 25  2  0
 24 59  1  0
 25 26  1  0
 25 60  1  0
 26 27  2  0
 26 28  1  0
 27 22  1  0
 27 61  1  0
 28 29  2  0
 29 30  1  0
 29 62  1  0
 30 31  2  0
 30 63  1  0
 31 32  1  0
 31 64  1  0
 32 33  2  0
 32 65  1  0
 33 28  1  0
 33 34  1  0
 34 35  1  0
 35 36  1  0
 35 66  1  0
 36 37  2  0
 37 38  1  0
 38 34  2  0
 40  4  1  0
 40 67  1  0
 40 68  1  0
M  END
> <Name>
CHEMBL2322174

> <Clean Energy>
135.175995

> <chembl_id>
CHEMBL2322174

> <chembl_pref_name>
None

> <efficacy>
0.152173913

> <Forcefield>
MMFF

> <ForcefieldBase>
MMFF

> <ForcefieldFFML>
<?xml version="1.0" encoding="UTF-8"?>
<!DOCTYPE ffml SYSTEM "Ffml.dtd">
<ffml version="1.0">
<forcefield name="MMFF" derivedFrom="MMFF" base="MMFF">
<atomTypes>
<atomType
name="O100"
element="O"
mass="16"
annotation=""/>
<atomType
name="N101"
element="N"
mass="14.007"
annotation=""/>
<atomType
name="C102"
element="C"
mass="12.011"
annotation=""/>
<atomType
name="H103"
element="H"
mass="1.008"
annotation=""/>
</atomTypes>
<parameters>
</parameters>
</forcefield>
</ffml>

> <Initial Potential Energy>
251.65405

> <Initial RMS Gradient>
38.57392

> <Minimization Criteria>
CONJUG> Minimization exiting with gradient tolerance ( 0.0100000) satisfied.

> <CHARMm Energy>
38.70409

> <Potential Energy>
38.70409

> <RMS Gradient>
0.00911

> <Bond Energy>
8.60981

> <Angle Energy>
20.23968

> <STRBend>
-0.5621

> <Dihedral Energy>
11.56744

> <OOPLane>
0.17759

> <Van der Waals Energy>
59.24974

> <Electrostatic Energy>
-60.57807

> <Hydrogen Bond Energy>
0

> <Solvation Free Energy>
0

> <HasGasteigerCharges>
true

> <REMARK99>
REMARK  99  MacroMolecule created from Mol2 file
REMARK  99  CHEMBL2322174
REMARK  99  PROTEIN
REMARK  99  GASTEIGER
REMARK  99
REMARK  99

$$$$
CHEMBL4160661
  SciTegic05292516403D

 72 75  0  0  0  0            999 V2000
   48.7337  -14.5353   -0.2425 F   0  0
   47.0149  -13.7151    0.8364 F   0  0
   47.5895  -13.8294   -0.3825 C   0  0
   29.7369  -12.9465   -0.3412 C   0  0
   29.7291  -14.3414   -0.2085 C   0  0
   30.9010  -15.0204    0.1415 C   0  0
   32.0849  -14.3105    0.3596 C   0  0
   32.0565  -12.9129    0.2661 C   0  0
   30.9017  -12.2266   -0.1035 C   0  0
   31.0683  -10.8733   -0.2001 O   0  0
   28.5158  -14.9210   -0.4626 O   0  0
   33.3184  -15.0296    0.7040 C   0  0
   34.5244  -14.6215    0.2832 C   0  0
   35.7563  -15.3667    0.6577 C   0  0
   37.0257  -14.6414    0.4210 C   0  0
   35.7148  -16.5105    1.0901 O   0  0
   38.0854  -15.3098   -0.1954 C   0  0
   38.2990  -12.5596    0.4788 C   0  0
   37.1436  -13.2811    0.7802 C   0  0
   39.3247  -13.2151   -0.1822 C   0  0
   39.2218  -14.5755   -0.4979 C   0  0
   40.6949  -15.1470   -1.3062 S   0  0
   41.4258  -13.5373   -1.2230 C   0  0
   40.5424  -12.6556   -0.6044 N   0  0
   42.5504  -13.2943   -1.6351 O   0  0
   40.9746  -11.2911   -0.3698 C   0  0
   41.9576  -11.1779    0.8014 C   0  0
   42.5360   -9.8651    0.7887 O   0  0
   43.9016   -9.8417    0.7451 C   0  0
   44.7145  -10.5834    1.6012 C   0  0
   46.1051  -10.4669    1.5191 C   0  0
   46.6937   -9.5956    0.5911 C   0  0
   45.8662   -8.8408   -0.2499 C   0  0
   44.4775   -8.9564   -0.1639 C   0  0
   48.1982   -9.4633    0.5018 C   0  0
   48.8172  -10.3024   -0.6230 C   0  0  1  0  0  0
   50.2737   -9.8736   -0.8070 C   0  0
   51.1587  -10.8406   -0.4481 O   0  0
   50.6291   -8.7806   -1.2225 O   0  0
   48.8258  -11.6988   -0.2540 O   0  0
   47.8537  -12.4609   -1.0033 C   0  0
   29.9399  -10.1261   -0.6353 C   0  0
   28.3913  -16.3163   -0.2140 C   0  0
   46.7532  -14.5523   -1.1607 F   0  0
   28.8125  -12.4553   -0.6254 H   0  0
   30.8996  -16.1025    0.2357 H   0  0
   32.9480  -12.3268    0.4723 H   0  0
   33.2226  -15.9257    1.3120 H   0  0
   34.6468  -13.7494   -0.3490 H   0  0
   38.0196  -16.3628   -0.4513 H   0  0
   38.3726  -11.5152    0.7592 H   0  0
   36.3271  -12.7765    1.2968 H   0  0
   41.4768  -10.9390   -1.2810 H   0  0
   40.1218  -10.6190   -0.2309 H   0  0
   41.4280  -11.3106    1.7516 H   0  0
   42.7107  -11.9719    0.7310 H   0  0
   44.2810  -11.2431    2.3476 H   0  0
   46.7312  -11.0498    2.1938 H   0  0
   46.2945   -8.1417   -0.9656 H   0  0
   43.8480   -8.3498   -0.8090 H   0  0
   48.4401   -8.4008    0.3683 H   0  0
   48.6385   -9.7504    1.4661 H   0  0
   48.3192  -10.1571   -1.5899 H   0  0
   50.6383  -11.6261   -0.1542 H   0  0
   46.9059  -11.9166   -1.0629 H   0  0
   48.2419  -12.5907   -2.0192 H   0  0
   30.2338   -9.0730   -0.6814 H   0  0
   29.1130  -10.2097    0.0777 H   0  0
   29.6280  -10.4296   -1.6401 H   0  0
   27.3512  -16.5990   -0.4026 H   0  0
   28.6181  -16.5536    0.8307 H   0  0
   29.0234  -16.8934   -0.8967 H   0  0
  1  3  1  0
  3  2  1  0
  3 44  1  0
  4  5  2  0
  4 45  1  0
  5  6  1  0
  5 11  1  0
  6  7  2  0
  6 46  1  0
  7  8  1  0
  7 12  1  0
  8  9  2  0
  8 47  1  0
  9  4  1  0
  9 10  1  0
 10 42  1  0
 11 43  1  0
 12 13  2  0
 12 48  1  0
 13 14  1  0
 13 49  1  0
 14 15  1  0
 14 16  2  0
 15 17  2  0
 17 21  1  0
 17 50  1  0
 18 19  2  0
 18 51  1  0
 19 15  1  0
 19 52  1  0
 20 18  1  0
 20 21  2  0
 21 22  1  0
 22 23  1  0
 23 24  1  0
 23 25  2  0
 24 20  1  0
 24 26  1  0
 26 27  1  0
 26 53  1  0
 26 54  1  0
 27 28  1  0
 27 55  1  0
 27 56  1  0
 28 29  1  0
 29 30  2  0
 30 31  1  0
 30 57  1  0
 31 32  2  0
 31 58  1  0
 32 33  1  0
 32 35  1  0
 33 34  2  0
 33 59  1  0
 34 29  1  0
 34 60  1  0
 35 36  1  0
 35 61  1  0
 35 62  1  0
 36 37  1  0
 36 40  1  0
 36 63  1  0
 37 38  1  0
 37 39  2  0
 38 64  1  0
 40 41  1  0
 41  3  1  0
 41 65  1  0
 41 66  1  0
 42 67  1  0
 42 68  1  0
 42 69  1  0
 43 70  1  0
 43 71  1  0
 43 72  1  0
M  END
> <Name>
CHEMBL4160661

> <Clean Energy>
47.688301

> <chembl_id>
CHEMBL4160661

> <chembl_pref_name>
None

> <efficacy>
0.38

> <Forcefield>
MMFF

> <ForcefieldBase>
MMFF

> <ForcefieldFFML>
<?xml version="1.0" encoding="UTF-8"?>
<!DOCTYPE ffml SYSTEM "Ffml.dtd">
<ffml version="1.0">
<forcefield name="MMFF" derivedFrom="MMFF" base="MMFF">
<atomTypes>
<atomType
name="F100"
element="F"
mass="18.998"
annotation=""/>
<atomType
name="C101"
element="C"
mass="12.011"
annotation=""/>
<atomType
name="O102"
element="O"
mass="16"
annotation=""/>
<atomType
name="S103"
element="S"
mass="32.066"
annotation=""/>
<atomType
name="N104"
element="N"
mass="14.007"
annotation=""/>
<atomType
name="H105"
element="H"
mass="1.008"
annotation=""/>
</atomTypes>
<parameters>
</parameters>
</forcefield>
</ffml>

> <Initial Potential Energy>
271.15016

> <Initial RMS Gradient>
28.08677

> <Minimization Criteria>
STEEPD> Minimization exiting with gradient tolerance ( 3.0000000) satisfied.

> <CHARMm Energy>
127.66257

> <Potential Energy>
127.66257

> <RMS Gradient>
0.05638

> <Bond Energy>
6.77131

> <Angle Energy>
33.57436

> <STRBend>
0.45322

> <Dihedral Energy>
16.26131

> <OOPLane>
0.1117

> <Van der Waals Energy>
79.59339

> <Electrostatic Energy>
-9.10271

> <Hydrogen Bond Energy>
0

> <Solvation Free Energy>
0

> <HasGasteigerCharges>
true

> <REMARK99>
REMARK  99  MacroMolecule created from Mol2 file
REMARK  99  CHEMBL4160661
REMARK  99  PROTEIN
REMARK  99  GASTEIGER
REMARK  99
REMARK  99

$$$$
CHEMBL4434731
  SciTegic05292516403D

 70 74  0  0  0  0            999 V2000
   16.2565  -10.2303   -1.3723 C   0  0
   16.7158  -11.2305   -2.2282 C   0  0
   17.9630  -11.8211   -2.0289 C   0  0
   17.0498   -9.7759   -0.3070 C   0  0
   18.3076  -10.3759   -0.0783 C   0  0
   18.7422  -11.3785   -0.9473 C   0  0
   19.9885  -11.7902   -0.5055 N   0  0
   20.3440  -11.0898    0.6283 C   0  0
   19.3193  -10.2004    0.9161 C   0  0
   19.2815   -9.2621    2.0693 C   0  0
   21.6224  -11.3197    1.3598 C   0  0
   14.9214   -9.6438   -1.6404 C   0  0
   14.5098   -9.5605   -2.7915 O   0  0
   14.2020   -9.2407   -0.5375 N   0  0
   20.7665  -12.8665   -1.1266 C   0  0
   20.1912  -14.2420   -0.8537 C   0  0
   19.4202  -14.5210    0.2822 C   0  0
   18.8935  -15.7925    0.4920 C   0  0
   19.1659  -16.8391   -0.3993 C   0  0
   19.9501  -16.5726   -1.5243 C   0  0
   20.4572  -15.2884   -1.7488 C   0  0
   18.6319  -18.1739   -0.1235 C   0  0
   17.2644  -18.3831   -0.4037 C   0  0
   16.6394  -19.5980   -0.1308 C   0  0
   17.3731  -20.6333    0.4258 C   0  0
   18.7302  -20.4562    0.6975 C   0  0
   19.3770  -19.2370    0.4335 C   0  0
   20.8355  -19.2122    0.7785 C   0  0
   21.2906  -18.0310    1.2548 O   0  0
   21.5454  -20.2012    0.6952 O   0  0
   12.9036   -8.6148   -0.6572 C   0  0
   11.7913   -9.4332   -0.0481 C   0  0
   10.6356   -8.7828    0.4014 C   0  0
    9.5599   -9.5133    0.9094 C   0  0
    9.6204  -10.9091    0.9666 C   0  0
   10.7576  -11.5859    0.5060 C   0  0
   11.8349  -10.8369    0.0079 C   0  0
    8.5413  -11.5739    1.4855 O   0  0
   10.9891  -12.9399    0.4836 O   0  0
    9.8348  -13.7730    0.5239 C   0  0
   16.0990  -11.5659   -3.0594 H   0  0
   18.3057  -12.6071   -2.6950 H   0  0
   16.7164   -8.9640    0.3323 H   0  0
   18.3700   -8.6574    2.0733 H   0  0
   20.1354   -8.5778    2.0344 H   0  0
   19.3185   -9.8159    3.0132 H   0  0
   21.6801  -10.7122    2.2682 H   0  0
   22.4773  -11.0553    0.7295 H   0  0
   21.7155  -12.3685    1.6599 H   0  0
   14.5397   -9.4669    0.3888 H   0  0
   20.7790  -12.6545   -2.2024 H   0  0
   21.7973  -12.8186   -0.7643 H   0  0
   19.1795  -13.7451    1.0071 H   0  0
   18.2592  -15.9581    1.3632 H   0  0
   20.1758  -17.3642   -2.2371 H   0  0
   21.0648  -15.1145   -2.6354 H   0  0
   16.6681  -17.5773   -0.8332 H   0  0
   15.5793  -19.7199   -0.3479 H   0  0
   16.8973  -21.5844    0.6478 H   0  0
   19.2928  -21.2817    1.1302 H   0  0
   20.6435  -17.2951    1.2833 H   0  0
   12.9868   -7.6584   -0.1283 H   0  0
   12.6654   -8.4071   -1.7057 H   0  0
   10.5569   -7.6976    0.3488 H   0  0
    8.6811   -8.9738    1.2517 H   0  0
   12.7069  -11.3716   -0.3649 H   0  0
    7.8551  -10.9273    1.7231 H   0  0
   10.1462  -14.7784    0.2222 H   0  0
    9.0665  -13.4469   -0.1854 H   0  0
    9.4477  -13.8487    1.5441 H   0  0
  1  2  2  0
  1 12  1  0
  2  3  1  0
  2 41  1  0
  3  6  2  0
  3 42  1  0
  4  1  1  0
  4 43  1  0
  5  4  2  0
  5  6  1  0
  6  7  1  0
  7  8  1  0
  7 15  1  0
  8  9  2  0
  8 11  1  0
  9  5  1  0
  9 10  1  0
 10 44  1  0
 10 45  1  0
 10 46  1  0
 11 47  1  0
 11 48  1  0
 11 49  1  0
 12 13  2  0
 12 14  1  0
 14 31  1  0
 14 50  1  0
 15 16  1  0
 15 51  1  0
 15 52  1  0
 16 17  2  0
 17 18  1  0
 17 53  1  0
 18 19  2  0
 18 54  1  0
 19 20  1  0
 19 22  1  0
 20 21  2  0
 20 55  1  0
 21 16  1  0
 21 56  1  0
 22 23  2  0
 23 24  1  0
 23 57  1  0
 24 25  2  0
 24 58  1  0
 25 26  1  0
 25 59  1  0
 26 27  2  0
 26 60  1  0
 27 22  1  0
 27 28  1  0
 28 29  1  0
 28 30  2  0
 29 61  1  0
 31 32  1  0
 31 62  1  0
 31 63  1  0
 32 33  2  0
 33 34  1  0
 33 64  1  0
 34 35  2  0
 34 65  1  0
 35 36  1  0
 35 38  1  0
 36 37  2  0
 36 39  1  0
 37 32  1  0
 37 66  1  0
 38 67  1  0
 39 40  1  0
 40 68  1  0
 40 69  1  0
 40 70  1  0
M  END
> <Name>
CHEMBL4434731

> <Clean Energy>
46.6325

> <chembl_id>
CHEMBL4434731

> <chembl_pref_name>
None

> <efficacy>
0.15

> <Forcefield>
MMFF

> <ForcefieldBase>
MMFF

> <ForcefieldFFML>
<?xml version="1.0" encoding="UTF-8"?>
<!DOCTYPE ffml SYSTEM "Ffml.dtd">
<ffml version="1.0">
<forcefield name="MMFF" derivedFrom="MMFF" base="MMFF">
<atomTypes>
<atomType
name="C100"
element="C"
mass="12.011"
annotation=""/>
<atomType
name="N101"
element="N"
mass="14.007"
annotation=""/>
<atomType
name="O102"
element="O"
mass="16"
annotation=""/>
<atomType
name="H103"
element="H"
mass="1.008"
annotation=""/>
</atomTypes>
<parameters>
</parameters>
</forcefield>
</ffml>

> <Initial Potential Energy>
488.74237

> <Initial RMS Gradient>
133.86331

> <Minimization Criteria>
STEEPD> Minimization exiting with gradient tolerance ( 3.0000000) satisfied.

> <CHARMm Energy>
88.24951

> <Potential Energy>
88.24951

> <RMS Gradient>
0.12161

> <Bond Energy>
9.15736

> <Angle Energy>
19.41137

> <STRBend>
0.46517

> <Dihedral Energy>
11.87854

> <OOPLane>
0.1724

> <Van der Waals Energy>
87.59394

> <Electrostatic Energy>
-40.42927

> <Hydrogen Bond Energy>
0

> <Solvation Free Energy>
0

> <HasGasteigerCharges>
true

> <REMARK99>
REMARK  99  MacroMolecule created from Mol2 file
REMARK  99  CHEMBL4434731
REMARK  99  PROTEIN
REMARK  99  GASTEIGER
REMARK  99
REMARK  99

$$$$
CHEMBL2424955
  SciTegic05292516403D

 50 53  0  0  0  0            999 V2000
    6.0067   -4.0579   -0.5898 S   0  0
    6.9652   -4.1149   -1.6706 O   0  0
    4.8540   -3.1817   -0.6063 O   0  0
    8.1843   -1.7405    0.7291 C   0  0
    8.0932   -3.1280    0.7576 C   0  0
    9.2576   -3.8713    0.5908 C   0  0
   10.4909   -3.3273    0.4635 N   0  0
   10.5507   -1.9785    0.4692 C   0  0
    9.4395   -1.1540    0.5816 C   0  0
   11.7692   -1.3437    0.3295 O   0  0
   12.9009   -2.2170    0.4520 C   0  0
    6.8200   -3.7716    0.8834 N   0  0
    5.3963   -5.7045   -0.3087 C   0  0
    4.3491   -5.8987    0.5966 C   0  0
    3.8620   -7.1888    0.8209 C   0  0
    4.4279   -8.2782    0.1471 C   0  0
    5.4650   -8.0724   -0.7720 C   0  0
    5.9420   -6.7815   -1.0095 C   0  0
    3.8068   -9.8490    0.4989 Cl  0  0
   13.2474   -2.8902   -0.8834 C   0  0
   14.0652   -4.0834   -0.6912 N   0  0
   13.4028   -5.3495   -0.4519 C   0  0
   15.3949   -3.9512   -0.4994 C   0  0
   16.1108   -5.0918   -0.2208 O   0  0
   16.1325   -2.8571   -0.5419 N   0  0
   17.4122   -3.2973   -0.2987 C   0  0
   17.4017   -4.6664   -0.1001 C   0  0
   18.5251   -5.4387    0.1727 C   0  0
   19.7356   -4.7404    0.2436 C   0  0
   19.7898   -3.3538    0.0487 C   0  0
   18.6314   -2.6109   -0.2258 C   0  0
    6.2100   -9.3679   -1.6379 Cl  0  0
    7.3016   -1.1124    0.8126 H   0  0
    9.2311   -4.9564    0.5693 H   0  0
    9.5549   -0.0768    0.5557 H   0  0
   13.7464   -1.5907    0.7612 H   0  0
   12.7610   -2.9382    1.2684 H   0  0
    6.1805   -3.2168    1.4583 H   0  0
    3.9048   -5.0562    1.1223 H   0  0
    3.0445   -7.3414    1.5238 H   0  0
    6.7406   -6.6221   -1.7311 H   0  0
   12.3378   -3.1525   -1.4367 H   0  0
   13.7548   -2.1647   -1.5335 H   0  0
   13.3787   -5.5746    0.6199 H   0  0
   13.9104   -6.1693   -0.9725 H   0  0
   12.3693   -5.3369   -0.8144 H   0  0
   18.4594   -6.5091    0.3183 H   0  0
   20.6554   -5.2858    0.4519 H   0  0
   20.7485   -2.8417    0.1086 H   0  0
   18.6753   -1.5385   -0.3793 H   0  0
  1  3  2  0
  1 13  1  0
  2  1  2  0
  4  5  2  0
  4 33  1  0
  5  6  1  0
  5 12  1  0
  6  7  2  0
  6 34  1  0
  7  8  1  0
  8  9  2  0
  8 10  1  0
  9  4  1  0
  9 35  1  0
 10 11  1  0
 11 20  1  0
 11 36  1  0
 11 37  1  0
 12  1  1  0
 12 38  1  0
 13 14  2  0
 14 15  1  0
 14 39  1  0
 15 16  2  0
 15 40  1  0
 16 17  1  0
 16 19  1  0
 17 18  2  0
 17 32  1  0
 18 13  1  0
 18 41  1  0
 20 21  1  0
 20 42  1  0
 20 43  1  0
 21 22  1  0
 21 23  1  0
 22 44  1  0
 22 45  1  0
 22 46  1  0
 23 24  1  0
 24 27  1  0
 25 23  2  0
 26 25  1  0
 26 27  2  0
 27 28  1  0
 28 29  2  0
 28 47  1  0
 29 30  1  0
 29 48  1  0
 30 31  2  0
 30 49  1  0
 31 26  1  0
 31 50  1  0
M  END
> <Name>
CHEMBL2424955

> <Clean Energy>
30.761999

> <chembl_id>
CHEMBL2424955

> <chembl_pref_name>
None

> <efficacy>
0.14

> <Forcefield>
MMFF

> <ForcefieldBase>
MMFF

> <ForcefieldFFML>
<?xml version="1.0" encoding="UTF-8"?>
<!DOCTYPE ffml SYSTEM "Ffml.dtd">
<ffml version="1.0">
<forcefield name="MMFF" derivedFrom="MMFF" base="MMFF">
<atomTypes>
<atomType
name="S100"
element="S"
mass="32.066"
annotation=""/>
<atomType
name="O101"
element="O"
mass="16"
annotation=""/>
<atomType
name="C102"
element="C"
mass="12.011"
annotation=""/>
<atomType
name="N103"
element="N"
mass="14.007"
annotation=""/>
<atomType
name="Cl104"
element="Cl"
mass="35.453"
annotation=""/>
<atomType
name="H105"
element="H"
mass="1.008"
annotation=""/>
</atomTypes>
<parameters>
</parameters>
</forcefield>
</ffml>

> <Initial Potential Energy>
63.15655

> <Initial RMS Gradient>
35.90762

> <Minimization Criteria>
CONJUG> Minimization exiting with gradient tolerance ( 0.0100000) satisfied.

> <CHARMm Energy>
-30.9975

> <Potential Energy>
-30.9975

> <RMS Gradient>
0.00946

> <Bond Energy>
3.97925

> <Angle Energy>
13.40479

> <STRBend>
0.83842

> <Dihedral Energy>
6.64198

> <OOPLane>
0.24359

> <Van der Waals Energy>
56.07353

> <Electrostatic Energy>
-112.17905

> <Hydrogen Bond Energy>
0

> <Solvation Free Energy>
0

> <HasGasteigerCharges>
true

> <REMARK99>
REMARK  99  MacroMolecule created from Mol2 file
REMARK  99  CHEMBL2424955
REMARK  99  PROTEIN
REMARK  99  GASTEIGER
REMARK  99
REMARK  99

$$$$
CHEMBL4520827
  SciTegic05292516403D

 68 71  0  0  0  0            999 V2000
    4.7804  -14.5399    0.2915 N   0  0
    4.7278  -15.8233    0.0718 C   0  0
    5.8155  -16.6404   -0.2417 N   0  0
    7.1455  -16.0554   -0.3118 C   0  0
    7.1392  -14.5733   -0.0759 C   0  0
    5.9969  -13.9130    0.2034 C   0  0
    5.9123  -12.4274    0.4633 C   0  0
    8.4917  -13.9197   -0.2432 C   0  0
    9.3824  -13.6480    0.9996 C   0  0
   10.5632  -12.9089    0.7578 N   0  0
    8.9264  -14.1828    2.5372 S   0  0
   11.4387  -12.4572    1.8501 C   0  0
   10.8186  -12.2211   -0.5109 C   0  0
    3.3358  -16.4680    0.1678 C   0  0
    2.2008  -15.5016    0.5107 C   0  0
    0.8581  -16.2283    0.5889 C   0  0
   -0.2734  -15.2721    0.9308 C   0  0
    5.6514  -18.0123   -0.7472 C   0  0
    6.8733  -18.9078   -0.6133 C   0  0
    7.2365  -19.4347    0.6320 C   0  0
    8.3925  -20.2147    0.7668 C   0  0
    9.2246  -20.4872   -0.3340 C   0  0
    8.8355  -19.9882   -1.5857 C   0  0
    7.6746  -19.2123   -1.7246 C   0  0
   10.5344  -21.1465   -0.1409 C   0  0
   10.9359  -22.3786   -0.7137 C   0  0
   12.2556  -22.8343   -0.4841 C   0  0
   13.1588  -22.1213    0.3034 C   0  0
   12.7661  -20.9228    0.8750 C   0  0
   11.4760  -20.4433    0.6508 C   0  0
   10.0870  -23.2563   -1.5271 C   0  0
   10.4959  -24.1518   -2.4149 N   0  0
    9.3784  -24.7998   -2.8721 N   0  0
    8.2920  -24.3453   -2.2710 N   0  0
    8.7272  -23.3835   -1.4408 N   0  0
    7.7962  -16.5278    0.4321 H   0  0
    7.5663  -16.2407   -1.3077 H   0  0
    5.3598  -11.9377   -0.3454 H   0  0
    6.8874  -11.9418    0.5477 H   0  0
    5.3811  -12.2411    1.4035 H   0  0
    9.0951  -14.5233   -0.9358 H   0  0
    8.3425  -12.9668   -0.7667 H   0  0
   12.4624  -12.3502    1.4787 H   0  0
   11.4631  -13.1656    2.6800 H   0  0
   11.0746  -11.4892    2.2073 H   0  0
   10.3203  -11.2478   -0.4821 H   0  0
   10.4472  -12.7923   -1.3632 H   0  0
   11.8948  -12.0817   -0.6496 H   0  0
    3.1203  -16.9482   -0.7940 H   0  0
    3.3852  -17.2496    0.9353 H   0  0
    2.4079  -15.0114    1.4701 H   0  0
    2.1454  -14.7105   -0.2474 H   0  0
    0.6411  -16.7141   -0.3695 H   0  0
    0.9048  -17.0165    1.3494 H   0  0
   -1.2240  -15.8123    0.9811 H   0  0
   -0.3675  -14.4885    0.1723 H   0  0
   -0.1030  -14.7935    1.9005 H   0  0
    4.8363  -18.5263   -0.2251 H   0  0
    5.3532  -17.9603   -1.8019 H   0  0
    6.6397  -19.2083    1.5148 H   0  0
    8.6674  -20.5693    1.7600 H   0  0
    9.4628  -20.1556   -2.4610 H   0  0
    7.4208  -18.8187   -2.7078 H   0  0
   12.5906  -23.7765   -0.9200 H   0  0
   14.1615  -22.5092    0.4648 H   0  0
   13.4575  -20.3497    1.4868 H   0  0
   11.2037  -19.4843    1.0930 H   0  0
    8.0660  -22.9044   -0.8445 H   0  0
  1  2  2  0
  1  6  1  0
  2  3  1  0
  2 14  1  0
  3  4  1  0
  3 18  1  0
  4  5  1  0
  4 36  1  0
  4 37  1  0
  5  6  2  0
  5  8  1  0
  6  7  1  0
  7 38  1  0
  7 39  1  0
  7 40  1  0
  8  9  1  0
  8 41  1  0
  8 42  1  0
  9 10  1  0
  9 11  2  0
 10 12  1  0
 10 13  1  0
 12 43  1  0
 12 44  1  0
 12 45  1  0
 13 46  1  0
 13 47  1  0
 13 48  1  0
 14 15  1  0
 14 49  1  0
 14 50  1  0
 15 16  1  0
 15 51  1  0
 15 52  1  0
 16 17  1  0
 16 53  1  0
 16 54  1  0
 17 55  1  0
 17 56  1  0
 17 57  1  0
 18 19  1  0
 18 58  1  0
 18 59  1  0
 19 20  2  0
 20 21  1  0
 20 60  1  0
 21 22  2  0
 21 61  1  0
 22 23  1  0
 22 25  1  0
 23 24  2  0
 23 62  1  0
 24 19  1  0
 24 63  1  0
 25 26  2  0
 26 27  1  0
 26 31  1  0
 27 28  2  0
 27 64  1  0
 28 29  1  0
 28 65  1  0
 29 30  2  0
 29 66  1  0
 30 25  1  0
 30 67  1  0
 31 32  2  0
 32 33  1  0
 33 34  2  0
 34 35  1  0
 35 31  1  0
 35 68  1  0
M  END
> <Name>
CHEMBL4520827

> <Clean Energy>
41.2178

> <chembl_id>
CHEMBL4520827

> <chembl_pref_name>
None

> <efficacy>
0.009496676

> <Forcefield>
MMFF

> <ForcefieldBase>
MMFF

> <ForcefieldFFML>
<?xml version="1.0" encoding="UTF-8"?>
<!DOCTYPE ffml SYSTEM "Ffml.dtd">
<ffml version="1.0">
<forcefield name="MMFF" derivedFrom="MMFF" base="MMFF">
<atomTypes>
<atomType
name="N100"
element="N"
mass="14.007"
annotation=""/>
<atomType
name="C101"
element="C"
mass="12.011"
annotation=""/>
<atomType
name="S102"
element="S"
mass="32.066"
annotation=""/>
<atomType
name="H103"
element="H"
mass="1.008"
annotation=""/>
</atomTypes>
<parameters>
</parameters>
</forcefield>
</ffml>

> <Initial Potential Energy>
212.09724

> <Initial RMS Gradient>
32.47322

> <Minimization Criteria>
CONJUG> Minimization exiting with gradient tolerance ( 0.0100000) satisfied.

> <CHARMm Energy>
21.95446

> <Potential Energy>
21.95446

> <RMS Gradient>
0.00776

> <Bond Energy>
10.88522

> <Angle Energy>
16.19535

> <STRBend>
0.77538

> <Dihedral Energy>
3.25002

> <OOPLane>
0.5977

> <Van der Waals Energy>
73.14288

> <Electrostatic Energy>
-82.89209

> <Hydrogen Bond Energy>
0

> <Solvation Free Energy>
0

> <HasGasteigerCharges>
true

> <REMARK99>
REMARK  99  MacroMolecule created from Mol2 file
REMARK  99  CHEMBL4520827
REMARK  99  PROTEIN
REMARK  99  GASTEIGER
REMARK  99
REMARK  99

$$$$
CHEMBL4855306
  SciTegic05292516403D

 35 37  0  0  0  0            999 V2000
   34.4977  -19.1995    2.1305 C   0  0
   35.7721  -18.7489    1.7705 C   0  0
   36.0155  -18.1724    0.5178 C   0  0
   34.9628  -18.0396   -0.4058 C   0  0
   33.4718  -19.0557    1.1911 C   0  0
   33.6719  -18.4856   -0.0612 C   0  0
   32.4156  -18.4971   -0.7277 C   0  0
   31.4677  -19.0577    0.1149 C   0  0
   32.1435  -19.4012    1.2671 N   0  0
   37.4109  -17.7357    0.1414 C   0  0
   38.1783  -18.8843   -0.5069 C   0  0
   39.5808  -18.4782   -0.8788 C   0  0
   40.2693  -19.4942   -1.4534 O   0  0
   40.0758  -17.3777   -0.6987 O   0  0
   30.0314  -19.3130   -0.0976 C   0  0
   29.0424  -19.1780    0.9043 C   0  0
   27.6955  -19.4502    0.5989 C   0  0
   27.3251  -19.8506   -0.6873 C   0  0
   28.2898  -19.9831   -1.6800 C   0  0
   29.6249  -19.7158   -1.3860 C   0  0
   29.4616  -18.6591    2.5127 Cl  0  0
   26.4285  -19.3124    1.7709 Cl  0  0
   34.3182  -19.6406    3.1056 H   0  0
   36.5841  -18.8519    2.4891 H   0  0
   35.1351  -17.5928   -1.3811 H   0  0
   32.2257  -18.1147   -1.7222 H   0  0
   31.7101  -19.8157    2.0805 H   0  0
   37.3582  -16.8757   -0.5387 H   0  0
   37.9377  -17.3754    1.0345 H   0  0
   38.2418  -19.7324    0.1851 H   0  0
   37.6644  -19.2128   -1.4179 H   0  0
   39.7463  -20.3147   -1.5371 H   0  0
   26.2824  -20.0596   -0.9213 H   0  0
   27.9942  -20.2945   -2.6803 H   0  0
   30.3640  -19.8361   -2.1775 H   0  0
  1  2  2  0
  1 23  1  0
  2  3  1  0
  2 24  1  0
  3  4  2  0
  3 10  1  0
  4  6  1  0
  4 25  1  0
  5  1  1  0
  5  6  2  0
  6  7  1  0
  7  8  2  0
  7 26  1  0
  8  9  1  0
  8 15  1  0
  9  5  1  0
  9 27  1  0
 10 11  1  0
 10 28  1  0
 10 29  1  0
 11 12  1  0
 11 30  1  0
 11 31  1  0
 12 13  1  0
 12 14  2  0
 13 32  1  0
 15 16  2  0
 16 17  1  0
 16 21  1  0
 17 18  2  0
 17 22  1  0
 18 19  1  0
 18 33  1  0
 19 20  2  0
 19 34  1  0
 20 15  1  0
 20 35  1  0
M  END
> <Name>
CHEMBL4855306

> <Clean Energy>
20.1651

> <chembl_id>
CHEMBL4855306

> <chembl_pref_name>
None

> <efficacy>
0.1275

> <Forcefield>
MMFF

> <ForcefieldBase>
MMFF

> <ForcefieldFFML>
<?xml version="1.0" encoding="UTF-8"?>
<!DOCTYPE ffml SYSTEM "Ffml.dtd">
<ffml version="1.0">
<forcefield name="MMFF" derivedFrom="MMFF" base="MMFF">
<atomTypes>
<atomType
name="C100"
element="C"
mass="12.011"
annotation=""/>
<atomType
name="N101"
element="N"
mass="14.007"
annotation=""/>
<atomType
name="O102"
element="O"
mass="16"
annotation=""/>
<atomType
name="Cl103"
element="Cl"
mass="35.453"
annotation=""/>
<atomType
name="H104"
element="H"
mass="1.008"
annotation=""/>
</atomTypes>
<parameters>
</parameters>
</forcefield>
</ffml>

> <Initial Potential Energy>
86.67457

> <Initial RMS Gradient>
33.90767

> <Minimization Criteria>
CONJUG> Minimization exiting with gradient tolerance ( 0.0100000) satisfied.

> <CHARMm Energy>
23.99506

> <Potential Energy>
23.99506

> <RMS Gradient>
0.00881

> <Bond Energy>
4.865

> <Angle Energy>
3.60469

> <STRBend>
-0.37596

> <Dihedral Energy>
-0.7124

> <OOPLane>
0.00632

> <Van der Waals Energy>
38.24424

> <Electrostatic Energy>
-21.63683

> <Hydrogen Bond Energy>
0

> <Solvation Free Energy>
0

> <HasGasteigerCharges>
true

> <REMARK99>
REMARK  99  MacroMolecule created from Mol2 file
REMARK  99  CHEMBL4855306
REMARK  99  PROTEIN
REMARK  99  GASTEIGER
REMARK  99
REMARK  99

$$$$
CHEMBL4852222
  SciTegic05292516403D

 35 37  0  0  0  0            999 V2000
   20.6135  -27.2485    1.5407 C   0  0
   21.8688  -26.8556    1.0548 C   0  0
   22.0015  -26.0825   -0.1058 C   0  0
   20.8381  -25.6920   -0.7991 C   0  0
   19.4842  -26.8469    0.8230 C   0  0
   19.5675  -26.0773   -0.3304 C   0  0
   18.2379  -25.8625   -0.7821 C   0  0
   17.3620  -26.5025    0.0821 C   0  0
   18.1499  -27.0878    1.0504 N   0  0
   23.3341  -25.6495   -0.6832 C   0  0
   24.5783  -25.9890    0.1360 C   0  0
   25.8311  -25.4942   -0.5433 C   0  0
   26.9459  -25.7674    0.1741 O   0  0
   25.8779  -24.9156   -1.6165 O   0  0
   15.8965  -26.6351    0.0237 C   0  0
   15.0524  -26.7018    1.1522 C   0  0
   13.6642  -26.8344    1.0029 C   0  0
   13.0952  -26.9042   -0.2684 C   0  0
   13.9165  -26.8400   -1.3885 C   0  0
   15.2983  -26.7058   -1.2481 C   0  0
   15.6497  -26.6092    2.7761 Cl  0  0
   13.2291  -26.9310   -2.9617 Cl  0  0
   20.5295  -27.8478    2.4418 H   0  0
   22.7415  -27.1800    1.6153 H   0  0
   20.9132  -25.0944   -1.7043 H   0  0
   17.9559  -25.2972   -1.6616 H   0  0
   17.7921  -27.6176    1.8326 H   0  0
   23.4298  -26.1042   -1.6785 H   0  0
   23.2989  -24.5616   -0.8311 H   0  0
   24.5178  -25.5199    1.1247 H   0  0
   24.6686  -27.0746    0.2546 H   0  0
   26.7749  -26.2277    1.0177 H   0  0
   13.0180  -26.8809    1.8772 H   0  0
   12.0175  -27.0078   -0.3766 H   0  0
   15.9159  -26.6690   -2.1436 H   0  0
  1  2  2  0
  1 23  1  0
  2  3  1  0
  2 24  1  0
  3  4  2  0
  3 10  1  0
  4  6  1  0
  4 25  1  0
  5  1  1  0
  5  6  2  0
  6  7  1  0
  7  8  2  0
  7 26  1  0
  8  9  1  0
  8 15  1  0
  9  5  1  0
  9 27  1  0
 10 11  1  0
 10 28  1  0
 10 29  1  0
 11 12  1  0
 11 30  1  0
 11 31  1  0
 12 13  1  0
 12 14  2  0
 13 32  1  0
 15 16  2  0
 16 17  1  0
 16 21  1  0
 17 18  2  0
 17 33  1  0
 18 19  1  0
 18 34  1  0
 19 20  2  0
 19 22  1  0
 20 15  1  0
 20 35  1  0
M  END
> <Name>
CHEMBL4852222

> <Clean Energy>
20.326799

> <chembl_id>
CHEMBL4852222

> <chembl_pref_name>
None

> <efficacy>
0.0269

> <Forcefield>
MMFF

> <ForcefieldBase>
MMFF

> <ForcefieldFFML>
<?xml version="1.0" encoding="UTF-8"?>
<!DOCTYPE ffml SYSTEM "Ffml.dtd">
<ffml version="1.0">
<forcefield name="MMFF" derivedFrom="MMFF" base="MMFF">
<atomTypes>
<atomType
name="C100"
element="C"
mass="12.011"
annotation=""/>
<atomType
name="N101"
element="N"
mass="14.007"
annotation=""/>
<atomType
name="O102"
element="O"
mass="16"
annotation=""/>
<atomType
name="Cl103"
element="Cl"
mass="35.453"
annotation=""/>
<atomType
name="H104"
element="H"
mass="1.008"
annotation=""/>
</atomTypes>
<parameters>
</parameters>
</forcefield>
</ffml>

> <Initial Potential Energy>
73.98372

> <Initial RMS Gradient>
34.24361

> <Minimization Criteria>
STEEPD> Minimization exiting with gradient tolerance ( 3.0000000) satisfied.

> <CHARMm Energy>
14.19164

> <Potential Energy>
14.19164

> <RMS Gradient>
0.12473

> <Bond Energy>
4.66746

> <Angle Energy>
5.32467

> <STRBend>
-0.46056

> <Dihedral Energy>
-2.72244

> <OOPLane>
0.007

> <Van der Waals Energy>
37.94237

> <Electrostatic Energy>
-30.56685

> <Hydrogen Bond Energy>
0

> <Solvation Free Energy>
0

> <HasGasteigerCharges>
true

> <REMARK99>
REMARK  99  MacroMolecule created from Mol2 file
REMARK  99  CHEMBL4852222
REMARK  99  PROTEIN
REMARK  99  GASTEIGER
REMARK  99
REMARK  99

$$$$
CHEMBL4859407
  SciTegic05292516403D

 41 43  0  0  0  0            999 V2000
    7.8494  -18.3458   -2.0065 C   0  0
    9.1396  -17.8532   -1.7731 C   0  0
    9.3761  -16.8494   -0.8274 C   0  0
    8.3008  -16.3072   -0.1027 C   0  0
    6.8049  -17.8111   -1.2446 C   0  0
    7.0042  -16.8090   -0.2998 C   0  0
    5.7472  -16.5307    0.2924 C   0  0
    4.8006  -17.3484   -0.2939 C   0  0
    5.4608  -18.1072   -1.2344 N   0  0
   10.7783  -16.3723   -0.5365 C   0  0
   11.2222  -16.8444    0.8462 C   0  0
   12.5653  -16.2800    1.2133 C   0  0
   12.8258  -16.3877    2.5389 O   0  0
   13.3679  -15.7982    0.4301 O   0  0
    3.3686  -17.4731   -0.0319 C   0  0
    2.5033  -16.3620   -0.0676 C   0  0
    1.1536  -16.5415    0.2691 C   0  0
    0.6462  -17.8062    0.5950 C   0  0
    1.5096  -18.9030    0.6171 C   0  0
    2.8565  -18.7374    0.3038 C   0  0
    2.9878  -14.9790   -0.4145 C   0  0
   -0.7965  -17.9668    0.9760 C   0  0
    7.6764  -19.1249   -2.7417 H   0  0
    9.9692  -18.2721   -2.3414 H   0  0
    8.4626  -15.5199    0.6281 H   0  0
    5.5559  -15.8156    1.0815 H   0  0
    5.0182  -18.7900   -1.8324 H   0  0
   11.4733  -16.7373   -1.3030 H   0  0
   10.8032  -15.2768   -0.6010 H   0  0
   10.5004  -16.5167    1.6036 H   0  0
   11.2857  -17.9379    0.8795 H   0  0
   12.0860  -16.7870    3.0388 H   0  0
    0.4799  -15.6852    0.2713 H   0  0
    1.1334  -19.8884    0.8859 H   0  0
    3.5253  -19.5942    0.3599 H   0  0
    2.1500  -14.3249   -0.6809 H   0  0
    3.6536  -14.9998   -1.2832 H   0  0
    3.5045  -14.5313    0.4396 H   0  0
   -1.1555  -18.9731    0.7358 H   0  0
   -1.4259  -17.2586    0.4267 H   0  0
   -0.9211  -17.7939    2.0494 H   0  0
  1  2  2  0
  1 23  1  0
  2  3  1  0
  2 24  1  0
  3  4  2  0
  3 10  1  0
  4  6  1  0
  4 25  1  0
  5  1  1  0
  5  6  2  0
  6  7  1  0
  7  8  2  0
  7 26  1  0
  8  9  1  0
  8 15  1  0
  9  5  1  0
  9 27  1  0
 10 11  1  0
 10 28  1  0
 10 29  1  0
 11 12  1  0
 11 30  1  0
 11 31  1  0
 12 13  1  0
 12 14  2  0
 13 32  1  0
 15 16  2  0
 16 17  1  0
 16 21  1  0
 17 18  2  0
 17 33  1  0
 18 19  1  0
 18 22  1  0
 19 20  2  0
 19 34  1  0
 20 15  1  0
 20 35  1  0
 21 36  1  0
 21 37  1  0
 21 38  1  0
 22 39  1  0
 22 40  1  0
 22 41  1  0
M  END
> <Name>
CHEMBL4859407

> <Clean Energy>
24.26

> <chembl_id>
CHEMBL4859407

> <chembl_pref_name>
None

> <efficacy>
0.0251

> <Forcefield>
MMFF

> <ForcefieldBase>
MMFF

> <ForcefieldFFML>
<?xml version="1.0" encoding="UTF-8"?>
<!DOCTYPE ffml SYSTEM "Ffml.dtd">
<ffml version="1.0">
<forcefield name="MMFF" derivedFrom="MMFF" base="MMFF">
<atomTypes>
<atomType
name="C100"
element="C"
mass="12.011"
annotation=""/>
<atomType
name="N101"
element="N"
mass="14.007"
annotation=""/>
<atomType
name="O102"
element="O"
mass="16"
annotation=""/>
<atomType
name="H103"
element="H"
mass="1.008"
annotation=""/>
</atomTypes>
<parameters>
</parameters>
</forcefield>
</ffml>

> <Initial Potential Energy>
65.66521

> <Initial RMS Gradient>
30.71952

> <Minimization Criteria>
CONJUG> Minimization exiting with gradient tolerance ( 0.0100000) satisfied.

> <CHARMm Energy>
10.02707

> <Potential Energy>
10.02707

> <RMS Gradient>
0.0094

> <Bond Energy>
4.27759

> <Angle Energy>
2.91657

> <STRBend>
-0.65574

> <Dihedral Energy>
1.2777

> <OOPLane>
0.06043

> <Van der Waals Energy>
39.72855

> <Electrostatic Energy>
-37.57804

> <Hydrogen Bond Energy>
0

> <Solvation Free Energy>
0

> <HasGasteigerCharges>
true

> <REMARK99>
REMARK  99  MacroMolecule created from Mol2 file
REMARK  99  CHEMBL4859407
REMARK  99  PROTEIN
REMARK  99  GASTEIGER
REMARK  99
REMARK  99

$$$$
CHEMBL1947146
  SciTegic05292516403D

 55 59  0  0  0  0            999 V2000
   -6.6967  -24.1346    1.2540 C   0  0
   -6.9007  -25.5205    1.1341 C   0  0
   -5.8969  -26.3487    0.6123 C   0  0
   -5.4887  -23.5529    0.8483 C   0  0
   -4.5138  -24.3743    0.3032 C   0  0
   -4.7139  -25.7577    0.2029 C   0  0
   -3.5669  -26.3311   -0.3838 N   0  0
   -2.6868  -25.2822   -0.7501 C   0  0
   -3.2378  -24.0938   -0.2228 N   0  0
   -1.6850  -25.4164   -1.4370 O   0  0
   -2.6380  -22.8430   -0.2498 C   0  0
   -3.4520  -27.6979   -0.8494 C   0  0
   -2.1552  -28.4498   -0.5790 C   0  0
   -1.9567  -29.7178   -1.1598 C   0  0
   -0.7588  -30.4183   -0.9769 C   0  0
    0.2759  -29.8655   -0.2223 C   0  0
    0.1106  -28.6118    0.3573 C   0  0
   -1.1126  -27.9378    0.2190 C   0  0
   -2.4171  -20.6669   -0.2624 O   0  0
   -3.3324  -21.6927   -0.1987 N   0  0
   -1.1634  -21.1774   -0.2907 C   0  0
   -1.2311  -22.5592   -0.2800 C   0  0
   -0.0130  -23.2655   -0.2363 C   0  0
    1.1985  -22.5530   -0.2313 C   0  0
    1.2144  -21.1573   -0.2637 C   0  0
    0.0161  -20.4376   -0.3026 C   0  0
    2.3371  -20.3743   -0.2501 O   0  0
    3.5800  -21.0454   -0.0847 C   0  0
    1.0591  -27.9748    1.1102 O   0  0
    2.4313  -28.1558    0.7320 C   0  0  1  0  0  0
    3.1319  -26.7872    0.6662 C   0  0
    4.4136  -26.8521    0.2135 O   0  0
    2.6161  -25.7165    0.9581 O   0  0
    3.1001  -29.0236    1.7919 C   0  0
   -3.1776  -30.4864   -2.1175 Cl  0  0
   -7.4911  -23.5043    1.6584 H   0  0
   -7.8535  -25.9469    1.4492 H   0  0
   -6.0678  -27.4148    0.5313 H   0  0
   -5.3538  -22.4818    0.9506 H   0  0
   -4.2660  -28.2892   -0.4187 H   0  0
   -3.5933  -27.6439   -1.9361 H   0  0
   -0.6241  -31.3994   -1.4269 H   0  0
    1.1854  -30.4432   -0.0905 H   0  0
   -1.2158  -26.9770    0.7181 H   0  0
    0.0215  -24.3501   -0.1787 H   0  0
    2.1146  -23.1376   -0.1878 H   0  0
    0.0042  -19.3544   -0.3146 H   0  0
    4.3664  -20.2853   -0.0457 H   0  0
    3.7922  -21.6978   -0.9381 H   0  0
    3.6093  -21.6018    0.8581 H   0  0
    2.5255  -28.5940   -0.2690 H   0  0
    4.7041  -27.7439   -0.0508 H   0  0
    4.1486  -29.2238    1.5518 H   0  0
    2.5817  -29.9817    1.8995 H   0  0
    3.0658  -28.5338    2.7719 H   0  0
  1  2  2  0
  1 36  1  0
  2  3  1  0
  2 37  1  0
  3  6  2  0
  3 38  1  0
  4  1  1  0
  4 39  1  0
  5  4  2  0
  5  6  1  0
  6  7  1  0
  7  8  1  0
  7 12  1  0
  8  9  1  0
  8 10  2  0
  9  5  1  0
  9 11  1  0
 11 22  1  0
 12 13  1  0
 12 40  1  0
 12 41  1  0
 13 14  2  0
 14 15  1  0
 14 35  1  0
 15 16  2  0
 15 42  1  0
 16 17  1  0
 16 43  1  0
 17 18  2  0
 17 29  1  0
 18 13  1  0
 18 44  1  0
 19 20  1  0
 20 11  2  0
 21 19  1  0
 21 22  2  0
 22 23  1  0
 23 24  2  0
 23 45  1  0
 24 25  1  0
 24 46  1  0
 25 26  2  0
 25 27  1  0
 26 21  1  0
 26 47  1  0
 27 28  1  0
 28 48  1  0
 28 49  1  0
 28 50  1  0
 29 30  1  0
 30 31  1  0
 30 34  1  0
 30 51  1  0
 31 32  1  0
 31 33  2  0
 32 52  1  0
 34 53  1  0
 34 54  1  0
 34 55  1  0
M  END
> <Name>
CHEMBL1947146

> <Clean Energy>
70.416603

> <chembl_id>
CHEMBL1947146

> <chembl_pref_name>
None

> <efficacy>
0.214893617

> <Forcefield>
MMFF

> <ForcefieldBase>
MMFF

> <ForcefieldFFML>
<?xml version="1.0" encoding="UTF-8"?>
<!DOCTYPE ffml SYSTEM "Ffml.dtd">
<ffml version="1.0">
<forcefield name="MMFF" derivedFrom="MMFF" base="MMFF">
<atomTypes>
<atomType
name="C100"
element="C"
mass="12.011"
annotation=""/>
<atomType
name="N101"
element="N"
mass="14.007"
annotation=""/>
<atomType
name="O102"
element="O"
mass="16"
annotation=""/>
<atomType
name="Cl103"
element="Cl"
mass="35.453"
annotation=""/>
<atomType
name="H104"
element="H"
mass="1.008"
annotation=""/>
</atomTypes>
<parameters>
</parameters>
</forcefield>
</ffml>

> <Initial Potential Energy>
167.68786

> <Initial RMS Gradient>
33.45018

> <Minimization Criteria>
CONJUG> Minimization exiting with gradient tolerance ( 0.0100000) satisfied.

> <CHARMm Energy>
66.26872

> <Potential Energy>
66.26872

> <RMS Gradient>
0.00943

> <Bond Energy>
7.99564

> <Angle Energy>
45.36599

> <STRBend>
-2.26395

> <Dihedral Energy>
5.19131

> <OOPLane>
0.27108

> <Van der Waals Energy>
65.63151

> <Electrostatic Energy>
-55.92285

> <Hydrogen Bond Energy>
0

> <Solvation Free Energy>
0

> <HasGasteigerCharges>
true

> <REMARK99>
REMARK  99  MacroMolecule created from Mol2 file
REMARK  99  CHEMBL1947146
REMARK  99  PROTEIN
REMARK  99  GASTEIGER
REMARK  99
REMARK  99

$$$$
CHEMBL519060
  SciTegic05292516403D

 62 66  0  0  0  0            999 V2000
    7.7218  -18.5685    1.0520 C   0  0
    7.5545  -19.9455    0.9705 C   0  0
    8.5634  -20.7476    0.4170 C   0  0
    8.9106  -17.9773    0.5860 C   0  0
    9.9120  -18.7821    0.0010 C   0  0
    9.7514  -20.1660   -0.0874 C   0  0
   10.9045  -20.6730   -0.7476 C   0  0
   11.7017  -19.6074   -1.1334 C   0  0
   11.1307  -18.4570   -0.6043 N   0  0
   12.9022  -19.6340   -2.0186 C   0  0
   11.5597  -17.0574   -0.8120 C   0  0
   13.0539  -16.8072   -0.8256 C   0  0
   13.8340  -17.1653    0.2959 C   0  0
   15.2115  -16.9222    0.3252 C   0  0
   15.8380  -16.3554   -0.7822 C   0  0
   15.0863  -15.9806   -1.8944 C   0  0
   13.7021  -16.1811   -1.9095 C   0  0
   15.8869  -17.3321    1.4466 O   0  0
   16.9247  -16.4366    1.8968 C   0  0  2  0  0  0
   18.2863  -16.8820    1.3879 C   0  0
   16.9291  -16.4788    3.4186 C   0  0
   19.2819  -16.1682    1.4016 O   0  0
   18.3055  -18.1599    0.9287 O   0  0
    6.8125  -17.6822    1.5643 O   0  0
    5.4834  -18.1476    1.8059 C   0  0
    5.4558  -19.0594    2.8058 F   0  0
    4.9319  -18.6931    0.6972 F   0  0
    4.7029  -17.1042    2.1803 F   0  0
   11.0895  -22.0860   -1.0721 C   0  0
   10.1845  -22.7621   -1.7906 N   0  0
   10.6759  -24.0501   -1.8901 O   0  0
   12.1806  -22.9047   -0.6850 C   0  0
   11.8581  -24.1371   -1.2266 C   0  0
   12.6271  -25.2944   -1.1031 C   0  0
   13.8087  -25.1790   -0.3670 C   0  0
   14.1737  -23.9447    0.1936 C   0  0
   13.3746  -22.7953    0.0485 C   0  0
   14.6864  -26.2046   -0.1220 O   0  0
   14.3426  -27.4950   -0.6211 C   0  0
   12.8535  -15.6341   -3.3127 Cl  0  0
    6.6467  -20.4422    1.3128 H   0  0
    8.4052  -21.8225    0.3390 H   0  0
    9.0354  -16.9014    0.6551 H   0  0
   12.8492  -18.8534   -2.7818 H   0  0
   12.9746  -20.5835   -2.5592 H   0  0
   13.8210  -19.5229   -1.4368 H   0  0
   11.0585  -16.7517   -1.7345 H   0  0
   11.1410  -16.4592    0.0047 H   0  0
   13.3619  -17.6350    1.1581 H   0  0
   16.9120  -16.1906   -0.8200 H   0  0
   15.6002  -15.5336   -2.7471 H   0  0
   16.7339  -15.4085    1.5640 H   0  0
   17.6988  -15.8210    3.8346 H   0  0
   17.1159  -17.4956    3.7829 H   0  0
   15.9543  -16.1731    3.8133 H   0  0
   17.4040  -18.5476    0.9832 H   0  0
   12.2958  -26.2174   -1.5642 H   0  0
   15.1039  -23.8807    0.7585 H   0  0
   13.6680  -21.8532    0.5014 H   0  0
   15.1321  -28.1902   -0.3201 H   0  0
   14.2973  -27.4927   -1.7149 H   0  0
   13.4018  -27.8474   -0.1856 H   0  0
  1  2  2  0
  1 24  1  0
  2  3  1  0
  2 41  1  0
  3  6  2  0
  3 42  1  0
  4  1  1  0
  4 43  1  0
  5  4  2  0
  5  6  1  0
  6  7  1  0
  7  8  2  0
  7 29  1  0
  8  9  1  0
  8 10  1  0
  9  5  1  0
  9 11  1  0
 10 44  1  0
 10 45  1  0
 10 46  1  0
 11 12  1  0
 11 47  1  0
 11 48  1  0
 12 13  2  0
 13 14  1  0
 13 49  1  0
 14 15  2  0
 14 18  1  0
 15 16  1  0
 15 50  1  0
 16 17  2  0
 16 51  1  0
 17 12  1  0
 17 40  1  0
 18 19  1  0
 19 20  1  0
 19 21  1  0
 19 52  1  0
 20 22  2  0
 20 23  1  0
 21 53  1  0
 21 54  1  0
 21 55  1  0
 23 56  1  0
 24 25  1  0
 25 26  1  0
 25 27  1  0
 25 28  1  0
 29 30  2  0
 30 31  1  0
 31 33  1  0
 32 29  1  0
 32 33  2  0
 33 34  1  0
 34 35  2  0
 34 57  1  0
 35 36  1  0
 35 38  1  0
 36 37  2  0
 36 58  1  0
 37 32  1  0
 37 59  1  0
 38 39  1  0
 39 60  1  0
 39 61  1  0
 39 62  1  0
M  END
> <Name>
CHEMBL519060

> <Clean Energy>
107.906998

> <chembl_id>
CHEMBL519060

> <chembl_pref_name>
None

> <efficacy>
0.24

> <Forcefield>
MMFF

> <ForcefieldBase>
MMFF

> <ForcefieldFFML>
<?xml version="1.0" encoding="UTF-8"?>
<!DOCTYPE ffml SYSTEM "Ffml.dtd">
<ffml version="1.0">
<forcefield name="MMFF" derivedFrom="MMFF" base="MMFF">
<atomTypes>
<atomType
name="C100"
element="C"
mass="12.011"
annotation=""/>
<atomType
name="N101"
element="N"
mass="14.007"
annotation=""/>
<atomType
name="O102"
element="O"
mass="16"
annotation=""/>
<atomType
name="F103"
element="F"
mass="18.998"
annotation=""/>
<atomType
name="Cl104"
element="Cl"
mass="35.453"
annotation=""/>
<atomType
name="H105"
element="H"
mass="1.008"
annotation=""/>
</atomTypes>
<parameters>
</parameters>
</forcefield>
</ffml>

> <Initial Potential Energy>
793.40259

> <Initial RMS Gradient>
365.0986

> <Minimization Criteria>
CONJUG> Minimization exiting with gradient tolerance ( 0.0100000) satisfied.

> <CHARMm Energy>
78.12225

> <Potential Energy>
78.12225

> <RMS Gradient>
0.00794

> <Bond Energy>
8.03231

> <Angle Energy>
28.45779

> <STRBend>
-0.17113

> <Dihedral Energy>
9.1007

> <OOPLane>
0.2347

> <Van der Waals Energy>
67.51082

> <Electrostatic Energy>
-35.04294

> <Hydrogen Bond Energy>
0

> <Solvation Free Energy>
0

> <HasGasteigerCharges>
true

> <REMARK99>
REMARK  99  MacroMolecule created from Mol2 file
REMARK  99  CHEMBL519060
REMARK  99  PROTEIN
REMARK  99  GASTEIGER
REMARK  99
REMARK  99

$$$$
CHEMBL1801734
  SciTegic05292516403D

 61 66  0  0  0  0            999 V2000
   -8.6081  -10.7930   -0.9950 C   0  0
   -8.4138   -9.5170   -0.4272 C   0  0
   -7.4940  -11.6815   -1.3069 C   0  0
   -7.0829   -8.9791   -0.1214 C   0  0
   -6.4170   -8.1755   -1.0714 C   0  0
   -6.4629   -9.2524    1.1101 C   0  0
   -5.1617   -7.6304   -0.8046 C   0  0
   -9.9172  -11.2317   -1.2701 C   0  0
   -9.5422   -8.7251   -0.1395 C   0  0
  -11.0233  -10.4321   -0.9798 C   0  0
  -10.8340   -9.1793   -0.4102 C   0  0
   -4.5881   -7.8751    0.4333 C   0  0
   -5.2207   -8.6965    1.3721 C   0  0
   -4.3627   -8.8932    2.5826 C   0  0
   -3.3582   -7.7361    2.4611 C   0  0
   -3.2666   -7.3858    0.9613 C   0  0  2  0  0  0
   -3.0136   -5.9839    0.6808 N   0  0
   -3.2558   -3.7897    0.3862 N   0  0
   -1.8651   -5.5459    0.0610 C   0  0
   -3.8154   -4.8730    0.8976 C   0  0
   -2.0493   -4.1857   -0.1269 C   0  0
    0.1624   -5.5688   -0.9263 C   0  0
   -0.8013   -6.2898   -0.3023 N   0  0
   -1.0411   -3.4567   -0.7755 C   0  0
    0.0852   -4.1943   -1.1788 C   0  0
   -5.1377   -4.8532    1.6184 C   0  0
   -1.1258   -1.9885   -1.0484 C   0  0
   -6.2365   -4.2880    0.7158 C   0  0
   -7.3935  -12.9615   -0.8372 N   0  0
   -6.3004  -13.5600   -1.3251 N   0  0
   -5.7051  -12.6276   -2.0564 N   0  0
   -6.4282  -11.4549   -2.0500 N   0  0
    1.3856   -6.3219   -1.3696 C   0  0
   -5.0230   -4.0184    2.8968 C   0  0
   -6.8807   -7.9847   -2.0377 H   0  0
   -6.9482   -9.8884    1.8453 H   0  0
   -4.6587   -7.0212   -1.5504 H   0  0
  -10.0770  -12.1944   -1.7461 H   0  0
   -9.4161   -7.7365    0.2997 H   0  0
  -12.0266  -10.7771   -1.2110 H   0  0
  -11.6844   -8.5413   -0.1867 H   0  0
   -4.9342   -8.8270    3.5128 H   0  0
   -3.8550   -9.8617    2.5263 H   0  0
   -3.7149   -6.8861    3.0552 H   0  0
   -2.3802   -8.0052    2.8755 H   0  0
   -2.4807   -7.9924    0.4954 H   0  0
    0.9029   -3.6944   -1.6916 H   0  0
   -5.4444   -5.8565    1.9167 H   0  0
   -0.2883   -1.4673   -0.5738 H   0  0
   -2.0539   -1.5609   -0.6564 H   0  0
   -1.0957   -1.8028   -2.1266 H   0  0
   -7.2047   -4.3074    1.2277 H   0  0
   -6.3333   -4.8728   -0.2048 H   0  0
   -6.0304   -3.2507    0.4282 H   0  0
   -8.0035  -13.4593   -0.2050 H   0  0
    1.4949   -6.2605   -2.4568 H   0  0
    1.3139   -7.3788   -1.0934 H   0  0
    2.2785   -5.9052   -0.8937 H   0  0
   -5.9676   -4.0267    3.4509 H   0  0
   -4.7709   -2.9748    2.6767 H   0  0
   -4.2429   -4.4152    3.5558 H   0  0
  1  2  1  0
  2  4  1  0
  3  1  1  0
  3 29  1  0
  4  5  2  0
  5  7  1  0
  5 35  1  0
  6  4  1  0
  6 13  2  0
  6 36  1  0
  7 12  2  0
  7 37  1  0
  8  1  2  0
  8 10  1  0
  8 38  1  0
  9  2  2  0
  9 39  1  0
 10 11  2  0
 10 40  1  0
 11  9  1  0
 11 41  1  0
 12 13  1  0
 13 14  1  0
 14 15  1  0
 14 42  1  0
 14 43  1  0
 15 16  1  0
 15 44  1  0
 15 45  1  0
 16 12  1  0
 16 17  1  0
 16 46  1  0
 17 19  1  0
 18 20  2  0
 18 21  1  0
 19 21  2  0
 19 23  1  0
 20 17  1  0
 21 24  1  0
 22 33  1  0
 23 22  2  0
 24 25  2  0
 25 22  1  0
 25 47  1  0
 26 20  1  0
 26 34  1  0
 26 48  1  0
 27 24  1  0
 27 49  1  0
 27 50  1  0
 27 51  1  0
 28 26  1  0
 28 52  1  0
 28 53  1  0
 28 54  1  0
 29 30  1  0
 29 55  1  0
 30 31  2  0
 31 32  1  0
 32  3  2  0
 33 56  1  0
 33 57  1  0
 33 58  1  0
 34 59  1  0
 34 60  1  0
 34 61  1  0
M  END
> <Name>
CHEMBL1801734

> <Clean Energy>
101.940002

> <chembl_id>
CHEMBL1801734

> <chembl_pref_name>
None

> <efficacy>
0.206521739

> <Forcefield>
MMFF

> <ForcefieldBase>
MMFF

> <ForcefieldFFML>
<?xml version="1.0" encoding="UTF-8"?>
<!DOCTYPE ffml SYSTEM "Ffml.dtd">
<ffml version="1.0">
<forcefield name="MMFF" derivedFrom="MMFF" base="MMFF">
<atomTypes>
<atomType
name="C100"
element="C"
mass="12.011"
annotation=""/>
<atomType
name="N101"
element="N"
mass="14.007"
annotation=""/>
<atomType
name="H102"
element="H"
mass="1.008"
annotation=""/>
</atomTypes>
<parameters>
</parameters>
</forcefield>
</ffml>

> <Initial Potential Energy>
234.77886

> <Initial RMS Gradient>
37.0177

> <Minimization Criteria>
STEEPD> Minimization exiting with gradient tolerance ( 3.0000000) satisfied.

> <CHARMm Energy>
95.00384

> <Potential Energy>
95.00384

> <RMS Gradient>
0.08408

> <Bond Energy>
7.05925

> <Angle Energy>
13.4903

> <STRBend>
-0.71705

> <Dihedral Energy>
10.89337

> <OOPLane>
0.02871

> <Van der Waals Energy>
55.58877

> <Electrostatic Energy>
8.6605

> <Hydrogen Bond Energy>
0

> <Solvation Free Energy>
0

> <HasGasteigerCharges>
true

> <REMARK99>
REMARK  99  MacroMolecule created from Mol2 file
REMARK  99  CHEMBL1801734
REMARK  99  PROTEIN
REMARK  99  GASTEIGER
REMARK  99
REMARK  99

$$$$
CHEMBL5191536
  SciTegic05292516403D

 57 58  0  0  0  0            999 V2000
   -3.1225   -2.1347   -1.2120 O   0  0
   -3.0861   -0.9526   -0.8962 C   0  0
   -1.8513   -0.1532   -1.0283 C   0  0
   -1.0875   -0.2693   -2.1869 C   0  0
    0.0352    0.5389   -2.3419 C   0  0
    0.4114    1.4404   -1.3309 C   0  0
    1.6654    2.2575   -1.4629 C   0  0
    3.1172    1.1886   -1.2032 S   0  0
    4.1663    2.3397   -0.2441 C   0  0
    5.6035    1.8179   -0.0435 C   0  0  2  0  0  0
    5.6178    0.4042    0.3528 N   0  0
    6.7125   -0.3908    0.3671 C   0  0
    7.8503    0.0558    0.3739 O   0  0
    6.3282   -1.6795    0.4158 O   0  0
    7.3081   -2.7487    0.4455 C   0  0
    8.1632   -2.6789    1.7155 C   0  0
    8.1679   -2.7480   -0.8231 C   0  0
    6.4794   -4.0414    0.4788 C   0  0
    6.2880    2.7907    0.9325 C   0  0
    7.3132    2.2886    1.6504 O   0  0
    6.0089    3.9836    1.0017 O   0  0
   -0.3512    1.5254   -0.1598 C   0  0
   -1.4820    0.7326   -0.0083 C   0  0
   -4.2871   -0.2758   -0.3576 C   0  0
   -4.9500   -0.8394    0.7323 C   0  0
   -5.9521   -0.1091    1.3677 C   0  0
   -6.2991    1.1721    0.9049 C   0  0
   -5.6808    1.6894   -0.2420 C   0  0
   -4.6736    0.9682   -0.8731 C   0  0
   -7.3218    2.0082    1.6233 C   0  0
   -8.3589    2.3708    0.8175 F   0  0
   -6.8055    3.1715    2.1093 F   0  0
   -7.8845    1.3788    2.6919 F   0  0
   -1.3670   -0.9746   -2.9651 H   0  0
    0.6329    0.4469   -3.2461 H   0  0
    1.7206    2.7049   -2.4613 H   0  0
    1.6611    3.0801   -0.7396 H   0  0
    4.1903    3.3062   -0.7599 H   0  0
    3.6793    2.4859    0.7274 H   0  0
    6.1597    1.8848   -0.9873 H   0  0
    4.7362   -0.0982    0.3041 H   0  0
    8.7980   -3.5655    1.8178 H   0  0
    7.5300   -2.5988    2.6064 H   0  0
    8.8193   -1.8034    1.7180 H   0  0
    8.7997   -3.6411   -0.8769 H   0  0
    8.8277   -1.8763   -0.8683 H   0  0
    7.5382   -2.7119   -1.7192 H   0  0
    7.1158   -4.9322    0.5043 H   0  0
    5.8260   -4.1078   -0.3993 H   0  0
    5.8214   -4.0604    1.3553 H   0  0
    7.6381    1.4157    1.3285 H   0  0
   -0.0617    2.1987    0.6442 H   0  0
   -2.0592    0.8050    0.9099 H   0  0
   -4.6612   -1.8196    1.1069 H   0  0
   -6.4554   -0.5344    2.2361 H   0  0
   -5.9785    2.6639   -0.6299 H   0  0
   -4.1857    1.3890   -1.7487 H   0  0
  2  1  2  0
  2  3  1  0
  3  4  1  0
  4  5  2  0
  4 34  1  0
  5  6  1  0
  5 35  1  0
  6  7  1  0
  6 22  2  0
  7  8  1  0
  7 36  1  0
  7 37  1  0
  8  9  1  0
  9 10  1  0
  9 38  1  0
  9 39  1  0
 10 11  1  0
 10 19  1  0
 10 40  1  0
 11 12  1  0
 11 41  1  0
 12 13  2  0
 12 14  1  0
 14 15  1  0
 15 16  1  0
 15 17  1  0
 15 18  1  0
 16 42  1  0
 16 43  1  0
 16 44  1  0
 17 45  1  0
 17 46  1  0
 17 47  1  0
 18 48  1  0
 18 49  1  0
 18 50  1  0
 19 20  1  0
 19 21  2  0
 20 51  1  0
 22 23  1  0
 22 52  1  0
 23  3  2  0
 23 53  1  0
 24  2  1  0
 24 29  2  0
 25 24  1  0
 25 54  1  0
 26 25  2  0
 26 55  1  0
 27 26  1  0
 27 30  1  0
 28 27  2  0
 28 56  1  0
 29 28  1  0
 29 57  1  0
 30 31  1  0
 30 32  1  0
 30 33  1  0
M  END
> <Name>
CHEMBL5191536

> <Clean Energy>
29.9405

> <chembl_id>
CHEMBL5191536

> <chembl_pref_name>
None

> <efficacy>
0.17

> <Forcefield>
MMFF

> <ForcefieldBase>
MMFF

> <ForcefieldFFML>
<?xml version="1.0" encoding="UTF-8"?>
<!DOCTYPE ffml SYSTEM "Ffml.dtd">
<ffml version="1.0">
<forcefield name="MMFF" derivedFrom="MMFF" base="MMFF">
<atomTypes>
<atomType
name="O100"
element="O"
mass="16"
annotation=""/>
<atomType
name="C101"
element="C"
mass="12.011"
annotation=""/>
<atomType
name="S102"
element="S"
mass="32.066"
annotation=""/>
<atomType
name="N103"
element="N"
mass="14.007"
annotation=""/>
<atomType
name="F104"
element="F"
mass="18.998"
annotation=""/>
<atomType
name="H105"
element="H"
mass="1.008"
annotation=""/>
</atomTypes>
<parameters>
</parameters>
</forcefield>
</ffml>

> <Initial Potential Energy>
192.78273

> <Initial RMS Gradient>
33.55307

> <Minimization Criteria>
STEEPD> Minimization exiting with gradient tolerance ( 3.0000000) satisfied.

> <CHARMm Energy>
58.73938

> <Potential Energy>
58.73938

> <RMS Gradient>
0.05379

> <Bond Energy>
5.77496

> <Angle Energy>
12.92771

> <STRBend>
0.77179

> <Dihedral Energy>
17.88384

> <OOPLane>
0.64676

> <Van der Waals Energy>
55.75398

> <Electrostatic Energy>
-35.01965

> <Hydrogen Bond Energy>
0

> <Solvation Free Energy>
0

> <HasGasteigerCharges>
true

> <REMARK99>
REMARK  99  MacroMolecule created from Mol2 file
REMARK  99  CHEMBL5191536
REMARK  99  PROTEIN
REMARK  99  GASTEIGER
REMARK  99
REMARK  99

$$$$
CHEMBL5196830
  SciTegic05292516403D

 42 42  0  0  0  0            999 V2000
   -4.2405   -0.2203    0.0120 C   0  0
   -4.4083    1.0129   -0.6362 C   0  0
   -5.3709   -1.0233    0.2259 C   0  0
   -6.6400   -0.5939   -0.1817 C   0  0
   -6.7940    0.6382   -0.8150 C   0  0
   -5.6752    1.4378   -1.0456 C   0  0
   -2.8688   -0.6637    0.4684 C   0  0
   -1.9037   -1.3867   -0.9034 S   0  0
   -0.3797   -1.9027   -0.0149 C   0  0
    0.6200   -0.7605    0.2377 C   0  0  2  0  0  0
    2.0090   -1.2385    0.2376 N   0  0
    3.0560   -0.3951    0.0191 C   0  0
    2.8934    0.8101   -0.1200 O   0  0
    4.2162   -1.0784    0.0306 O   0  0
    5.4797   -0.3884   -0.1516 C   0  0
    6.5440   -1.4936   -0.0788 C   0  0
    5.7334    0.6127    0.9810 C   0  0
    5.5557    0.2765   -1.5304 C   0  0
    0.3504   -0.0592    1.5773 C   0  0
   -0.3899   -0.4898    2.4513 O   0  0
    1.0193    1.1113    1.7254 O   0  0
   -3.5492    1.6527   -0.8259 H   0  0
   -5.2776   -1.9893    0.7175 H   0  0
   -7.5071   -1.2243   -0.0040 H   0  0
   -7.7803    0.9723   -1.1302 H   0  0
   -5.7837    2.3964   -1.5453 H   0  0
   -2.3409    0.2070    0.8683 H   0  0
   -2.9614   -1.3998    1.2740 H   0  0
   -0.6526   -2.4405    0.8991 H   0  0
    0.0881   -2.6424   -0.6754 H   0  0
    0.5267   -0.0092   -0.5569 H   0  0
    2.2405   -2.2042    0.4359 H   0  0
    7.5557   -1.0932   -0.2028 H   0  0
    6.3737   -2.2502   -0.8536 H   0  0
    6.4950   -2.0191    0.8821 H   0  0
    6.7512    1.0152    0.9366 H   0  0
    5.5882    0.1389    1.9584 H   0  0
    5.0438    1.4612    0.9384 H   0  0
    6.5613    0.6609   -1.7325 H   0  0
    4.8601    1.1166   -1.6176 H   0  0
    5.2893   -0.4350   -2.3202 H   0  0
    1.6385    1.3080    0.9796 H   0  0
  1  2  1  0
  1  3  2  0
  1  7  1  0
  2  6  2  0
  2 22  1  0
  3  4  1  0
  3 23  1  0
  4  5  2  0
  4 24  1  0
  5  6  1  0
  5 25  1  0
  6 26  1  0
  7  8  1  0
  7 27  1  0
  7 28  1  0
  8  9  1  0
  9 10  1  0
  9 29  1  0
  9 30  1  0
 10 11  1  0
 10 19  1  0
 10 31  1  0
 11 12  1  0
 11 32  1  0
 12 13  2  0
 12 14  1  0
 14 15  1  0
 15 16  1  0
 15 17  1  0
 15 18  1  0
 16 33  1  0
 16 34  1  0
 16 35  1  0
 17 36  1  0
 17 37  1  0
 17 38  1  0
 18 39  1  0
 18 40  1  0
 18 41  1  0
 19 20  2  0
 19 21  1  0
 21 42  1  0
M  END
> <Name>
CHEMBL5196830

> <Clean Energy>
9.73473

> <chembl_id>
CHEMBL5196830

> <chembl_pref_name>
None

> <efficacy>
0.22

> <Forcefield>
MMFF

> <ForcefieldBase>
MMFF

> <ForcefieldFFML>
<?xml version="1.0" encoding="UTF-8"?>
<!DOCTYPE ffml SYSTEM "Ffml.dtd">
<ffml version="1.0">
<forcefield name="MMFF" derivedFrom="MMFF" base="MMFF">
<atomTypes>
<atomType
name="C100"
element="C"
mass="12.011"
annotation=""/>
<atomType
name="S101"
element="S"
mass="32.066"
annotation=""/>
<atomType
name="N102"
element="N"
mass="14.007"
annotation=""/>
<atomType
name="O103"
element="O"
mass="16"
annotation=""/>
<atomType
name="H104"
element="H"
mass="1.008"
annotation=""/>
</atomTypes>
<parameters>
</parameters>
</forcefield>
</ffml>

> <Initial Potential Energy>
66.89562

> <Initial RMS Gradient>
22.56556

> <Minimization Criteria>
CONJUG> Minimization exiting with gradient tolerance ( 0.0100000) satisfied.

> <CHARMm Energy>
-10.99796

> <Potential Energy>
-10.99796

> <RMS Gradient>
0.00902

> <Bond Energy>
4.22062

> <Angle Energy>
8.58407

> <STRBend>
0.51964

> <Dihedral Energy>
8.05264

> <OOPLane>
0.03358

> <Van der Waals Energy>
32.75929

> <Electrostatic Energy>
-65.16779

> <Hydrogen Bond Energy>
0

> <Solvation Free Energy>
0

> <HasGasteigerCharges>
true

> <REMARK99>
REMARK  99  MacroMolecule created from Mol2 file
REMARK  99  CHEMBL5196830
REMARK  99  PROTEIN
REMARK  99  GASTEIGER
REMARK  99
REMARK  99

$$$$
CHEMBL4243327
  SciTegic05292516403D

 72 76  0  0  0  0            999 V2000
   -3.2456   -9.5620   -1.5138 C   0  0
   -3.5632  -10.9176   -1.5380 C   0  0
   -2.6434  -11.8538   -1.0724 C   0  0
   -1.4029  -11.4335   -0.5843 C   0  0
   -1.0623  -10.0714   -0.5528 C   0  0
   -2.0062   -9.1434   -1.0236 C   0  0
    0.2531   -9.6271   -0.0668 C   0  0
    1.4342  -10.1348   -0.6285 C   0  0
    2.6928   -9.6928   -0.2029 C   0  0
    2.7937   -8.7318    0.8022 C   0  0
    1.6265   -8.2280    1.3800 C   0  0
    0.3701   -8.6694    0.9508 C   0  0
    3.9534   -8.1713    1.2737 O   0  0
    5.1986   -8.6845    0.7769 C   0  0  1  0  0  0
    5.5175   -8.1026   -0.6047 C   0  0
    6.3019   -8.2849    1.7722 C   0  0
    6.3250   -8.5994   -1.3812 O   0  0
    4.8237   -6.9718   -0.8942 O   0  0
    7.5877   -9.0507    1.5472 C   0  0
    7.6787  -10.4053    1.8885 C   0  0
    8.8200  -11.1515    1.5545 C   0  0
    9.9048  -10.5718    0.8753 C   0  0
    9.8195   -9.2004    0.5832 C   0  0
    8.6797   -8.4484    0.9125 C   0  0
   11.0638  -11.3822    0.4379 C   0  0
   10.8815  -12.5695   -0.2892 C   0  0
   11.9759  -13.3252   -0.7346 C   0  0
   13.2861  -12.9246   -0.4626 C   0  0
   13.4874  -11.7487    0.2551 C   0  0
   12.3875  -10.9897    0.6996 C   0  0
   14.2502  -13.7485   -0.9784 O   0  0
   15.6286  -13.5926   -0.5530 C   0  0  1  0  0  0
   16.2870  -14.9751   -0.7115 C   0  0
   15.4895  -15.9002   -1.3030 O   0  0
   17.4287  -15.2498   -0.3657 O   0  0
   16.3620  -12.5919   -1.4660 C   0  0
   17.3943  -11.6947   -0.8070 C   0  0
   18.2130  -12.1154    0.2491 C   0  0
   19.1707  -11.2569    0.7982 C   0  0
   19.3333   -9.9698    0.2929 C   0  0
   18.5427   -9.5421   -0.7687 C   0  0
   17.5886  -10.4007   -1.3193 C   0  0
   -3.9567   -8.8291   -1.8854 H   0  0
   -4.5244  -11.2440   -1.9256 H   0  0
   -2.8844  -12.9130   -1.0916 H   0  0
   -0.6997  -12.1810   -0.2224 H   0  0
   -1.7673   -8.0819   -1.0303 H   0  0
    1.3825  -10.8692   -1.4313 H   0  0
    3.5589  -10.1165   -0.7032 H   0  0
    1.6883   -7.4818    2.1684 H   0  0
   -0.5236   -8.2595    1.4195 H   0  0
    5.1501   -9.7773    0.7068 H   0  0
    6.4892   -7.2042    1.7200 H   0  0
    5.9614   -8.4683    2.8000 H   0  0
    4.1710   -6.7596   -0.1916 H   0  0
    6.8516  -10.9086    2.3848 H   0  0
    8.8415  -12.2085    1.8137 H   0  0
   10.6280   -8.7078    0.0451 H   0  0
    8.6427   -7.4021    0.6166 H   0  0
    9.8766  -12.9082   -0.5391 H   0  0
   11.7945  -14.2340   -1.3043 H   0  0
   14.4797  -11.3723    0.4801 H   0  0
   12.5783  -10.0762    1.2609 H   0  0
   15.6574  -13.3477    0.5149 H   0  0
   14.6152  -15.4980   -1.5037 H   0  0
   16.8676  -13.1191   -2.2864 H   0  0
   15.6138  -11.9482   -1.9474 H   0  0
   18.1355  -13.1171    0.6634 H   0  0
   19.7933  -11.5997    1.6207 H   0  0
   20.0780   -9.3051    0.7224 H   0  0
   18.6645   -8.5398   -1.1701 H   0  0
   16.9882  -10.0456   -2.1556 H   0  0
  1  2  2  0
  1 43  1  0
  2  3  1  0
  2 44  1  0
  3  4  2  0
  3 45  1  0
  4  5  1  0
  4 46  1  0
  5  6  2  0
  5  7  1  0
  6  1  1  0
  6 47  1  0
  7  8  2  0
  8  9  1  0
  8 48  1  0
  9 10  2  0
  9 49  1  0
 10 11  1  0
 10 13  1  0
 11 12  2  0
 11 50  1  0
 12  7  1  0
 12 51  1  0
 13 14  1  0
 14 15  1  0
 14 16  1  0
 14 52  1  0
 15 17  2  0
 15 18  1  0
 16 19  1  0
 16 53  1  0
 16 54  1  0
 18 55  1  0
 19 20  2  0
 20 21  1  0
 20 56  1  0
 21 22  2  0
 21 57  1  0
 22 23  1  0
 22 25  1  0
 23 24  2  0
 23 58  1  0
 24 19  1  0
 24 59  1  0
 25 26  2  0
 26 27  1  0
 26 60  1  0
 27 28  2  0
 27 61  1  0
 28 29  1  0
 28 31  1  0
 29 30  2  0
 29 62  1  0
 30 25  1  0
 30 63  1  0
 31 32  1  0
 32 33  1  0
 32 36  1  0
 32 64  1  0
 33 34  1  0
 33 35  2  0
 34 65  1  0
 36 37  1  0
 36 66  1  0
 36 67  1  0
 37 38  2  0
 38 39  1  0
 38 68  1  0
 39 40  2  0
 39 69  1  0
 40 41  1  0
 40 70  1  0
 41 42  2  0
 41 71  1  0
 42 37  1  0
 42 72  1  0
M  END
> <Name>
CHEMBL4243327

> <Clean Energy>
47.534698

> <chembl_id>
CHEMBL4243327

> <chembl_pref_name>
None

> <efficacy>
0.08

> <Forcefield>
MMFF

> <ForcefieldBase>
MMFF

> <ForcefieldFFML>
<?xml version="1.0" encoding="UTF-8"?>
<!DOCTYPE ffml SYSTEM "Ffml.dtd">
<ffml version="1.0">
<forcefield name="MMFF" derivedFrom="MMFF" base="MMFF">
<atomTypes>
<atomType
name="C100"
element="C"
mass="12.011"
annotation=""/>
<atomType
name="O101"
element="O"
mass="16"
annotation=""/>
<atomType
name="H102"
element="H"
mass="1.008"
annotation=""/>
</atomTypes>
<parameters>
</parameters>
</forcefield>
</ffml>

> <Initial Potential Energy>
284.88719

> <Initial RMS Gradient>
33.01146

> <Minimization Criteria>
STEEPD> Minimization exiting with gradient tolerance ( 3.0000000) satisfied.

> <CHARMm Energy>
117.42678

> <Potential Energy>
117.42678

> <RMS Gradient>
0.04178

> <Bond Energy>
11.92096

> <Angle Energy>
21.14842

> <STRBend>
0.00697

> <Dihedral Energy>
10.73972

> <OOPLane>
0.12881

> <Van der Waals Energy>
95.16474

> <Electrostatic Energy>
-21.68283

> <Hydrogen Bond Energy>
0

> <Solvation Free Energy>
0

> <HasGasteigerCharges>
true

> <REMARK99>
REMARK  99  MacroMolecule created from Mol2 file
REMARK  99  CHEMBL4243327
REMARK  99  PROTEIN
REMARK  99  GASTEIGER
REMARK  99
REMARK  99

$$$$
CHEMBL4858086
  SciTegic05292516403D

 38 40  0  0  0  0            999 V2000
   41.5025   -4.7054   -1.7193 C   0  0
   42.7787   -4.1581   -1.5453 C   0  0
   43.0119   -3.1281   -0.6263 C   0  0
   41.9500   -2.6329    0.1514 C   0  0
   40.4641   -4.1886   -0.9372 C   0  0
   40.6578   -3.1692   -0.0087 C   0  0
   39.3960   -2.9029    0.5893 C   0  0
   38.4578   -3.7419    0.0176 C   0  0
   39.1290   -4.5195   -0.8990 N   0  0
   44.4017   -2.5681   -0.4466 C   0  0
   45.1431   -3.2815    0.6802 C   0  0
   46.5336   -2.7265    0.8530 C   0  0
   47.2126   -3.3408    1.8505 O   0  0
   47.0278   -1.8306    0.1880 O   0  0
   37.0198   -3.8650    0.2464 C   0  0
   36.1279   -2.8053   -0.0172 C   0  0
   34.7569   -2.9853    0.2357 C   0  0
   34.2712   -4.2006    0.7235 C   0  0
   35.1551   -5.2444    0.9718 C   0  0
   36.5207   -5.0811    0.7400 C   0  0
   36.6055   -1.4777   -0.5451 C   0  0
   34.5700   -6.7426    1.5792 Cl  0  0
   41.3313   -5.4983   -2.4400 H   0  0
   43.5995   -4.5453   -2.1478 H   0  0
   42.1147   -1.8341    0.8692 H   0  0
   39.1935   -2.1657    1.3553 H   0  0
   38.6958   -5.2200   -1.4835 H   0  0
   44.9591   -2.6564   -1.3883 H   0  0
   44.3372   -1.4913   -0.2427 H   0  0
   44.6037   -3.1574    1.6264 H   0  0
   45.2254   -4.3521    0.4592 H   0  0
   46.7038   -4.0422    2.3002 H   0  0
   34.0518   -2.1766    0.0494 H   0  0
   33.2065   -4.3212    0.9102 H   0  0
   37.2157   -5.8893    0.9627 H   0  0
   35.7662   -0.8638   -0.8898 H   0  0
   37.2704   -1.6150   -1.4039 H   0  0
   37.1257   -0.9217    0.2408 H   0  0
  1  2  2  0
  1 23  1  0
  2  3  1  0
  2 24  1  0
  3  4  2  0
  3 10  1  0
  4  6  1  0
  4 25  1  0
  5  1  1  0
  5  6  2  0
  6  7  1  0
  7  8  2  0
  7 26  1  0
  8  9  1  0
  8 15  1  0
  9  5  1  0
  9 27  1  0
 10 11  1  0
 10 28  1  0
 10 29  1  0
 11 12  1  0
 11 30  1  0
 11 31  1  0
 12 13  1  0
 12 14  2  0
 13 32  1  0
 15 16  2  0
 16 17  1  0
 16 21  1  0
 17 18  2  0
 17 33  1  0
 18 19  1  0
 18 34  1  0
 19 20  2  0
 19 22  1  0
 20 15  1  0
 20 35  1  0
 21 36  1  0
 21 37  1  0
 21 38  1  0
M  END
> <Name>
CHEMBL4858086

> <Clean Energy>
24.530399

> <chembl_id>
CHEMBL4858086

> <chembl_pref_name>
None

> <efficacy>
0.1828

> <Forcefield>
MMFF

> <ForcefieldBase>
MMFF

> <ForcefieldFFML>
<?xml version="1.0" encoding="UTF-8"?>
<!DOCTYPE ffml SYSTEM "Ffml.dtd">
<ffml version="1.0">
<forcefield name="MMFF" derivedFrom="MMFF" base="MMFF">
<atomTypes>
<atomType
name="C100"
element="C"
mass="12.011"
annotation=""/>
<atomType
name="N101"
element="N"
mass="14.007"
annotation=""/>
<atomType
name="O102"
element="O"
mass="16"
annotation=""/>
<atomType
name="Cl103"
element="Cl"
mass="35.453"
annotation=""/>
<atomType
name="H104"
element="H"
mass="1.008"
annotation=""/>
</atomTypes>
<parameters>
</parameters>
</forcefield>
</ffml>

> <Initial Potential Energy>
59.01643

> <Initial RMS Gradient>
31.93311

> <Minimization Criteria>
CONJUG> Minimization exiting with gradient tolerance ( 0.0100000) satisfied.

> <CHARMm Energy>
6.01607

> <Potential Energy>
6.01607

> <RMS Gradient>
0.00919

> <Bond Energy>
4.28873

> <Angle Energy>
2.86718

> <STRBend>
-0.66444

> <Dihedral Energy>
2.13311

> <OOPLane>
0.00567

> <Van der Waals Energy>
36.3418

> <Electrostatic Energy>
-38.95597

> <Hydrogen Bond Energy>
0

> <Solvation Free Energy>
0

> <HasGasteigerCharges>
true

> <REMARK99>
REMARK  99  MacroMolecule created from Mol2 file
REMARK  99  CHEMBL4858086
REMARK  99  PROTEIN
REMARK  99  GASTEIGER
REMARK  99
REMARK  99

$$$$
CHEMBL3115245
  SciTegic05292516403D

 75 80  0  0  0  0            999 V2000
    4.2332  -19.1710   -1.5972 C   0  0
    4.8128  -18.2625   -2.5808 C   0  0
    6.1360  -18.0431   -2.5689 C   0  0
    5.0161  -19.8419   -0.7235 C   0  0
    7.4988  -20.1067    0.0110 C   0  0
    6.4311  -19.6184   -0.7230 C   0  0
    6.9456  -18.7000   -1.6414 N   0  0
    8.2804  -18.5606   -1.4909 N   0  0
    8.6144  -19.3625   -0.4758 C   0  0
    7.4629  -21.1407    1.0895 C   0  0
   10.0400  -19.3853   -0.0214 C   0  0
   10.4378  -18.1557    0.8001 C   0  0
    8.4032  -22.2670    0.7214 C   0  0
    8.5028  -22.7865   -0.5779 C   0  0
    9.4074  -23.8101   -0.8693 C   0  0
   10.2053  -24.3779    0.1348 C   0  0
   10.0630  -23.8946    1.4422 C   0  0
    9.1792  -22.8528    1.7320 C   0  0
   11.1012  -25.5052   -0.1790 C   0  0
   10.4927  -26.6998   -0.6308 C   0  0
   11.2394  -27.8335   -0.9437 C   0  0
   12.6178  -27.8028   -0.8040 C   0  0
   13.2462  -26.6431   -0.3523 C   0  0
   12.5092  -25.4805   -0.0432 C   0  0
    9.7629  -18.1055    2.1638 C   0  0
   13.2745  -24.3104    0.3803 C   0  0
   14.4436  -24.4358    1.1040 N   0  0
   14.9387  -23.2179    1.2541 N   0  0
   14.0746  -22.4255    0.6134 N   0  0
   13.0058  -23.0278    0.0671 N   0  0
    2.7478  -19.3315   -1.5540 C   0  0
    2.1882  -18.9865   -0.3445 N   0  0
    2.1003  -19.6411   -2.5477 O   0  0
    0.7503  -18.8494   -0.1579 C   0  0  2  0  0  0
    0.3865  -17.3737   -0.2172 C   0  0
    0.3227  -19.5611    1.1391 C   0  0
   -1.1882  -19.5998    1.3268 C   0  0
   -0.2396  -16.8627   -1.3667 C   0  0
   -0.5728  -15.5102   -1.4584 C   0  0
   -0.2710  -14.6472   -0.4078 C   0  0
    0.3618  -15.1335    0.7340 C   0  0
    0.6943  -16.4868    0.8276 C   0  0
    4.1549  -17.7780   -3.2969 H   0  0
    6.6519  -17.3834   -3.2520 H   0  0
    4.6010  -20.5413   -0.0052 H   0  0
    7.7629  -20.6733    2.0348 H   0  0
    6.4575  -21.5530    1.2259 H   0  0
   10.2570  -20.2868    0.5580 H   0  0
   10.6860  -19.4370   -0.9078 H   0  0
   11.5237  -18.1757    0.9524 H   0  0
   10.2108  -17.2352    0.2494 H   0  0
    7.8951  -22.3831   -1.3863 H   0  0
    9.4887  -24.1685   -1.8943 H   0  0
   10.6419  -24.3321    2.2510 H   0  0
    9.1011  -22.4974    2.7573 H   0  0
    9.4079  -26.7446   -0.7359 H   0  0
   10.7427  -28.7342   -1.2933 H   0  0
   13.2101  -28.6776   -1.0499 H   0  0
   14.3324  -26.6490   -0.2561 H   0  0
   10.1378  -17.2514    2.7368 H   0  0
    9.9690  -19.0146    2.7377 H   0  0
    8.6785  -17.9936    2.0704 H   0  0
   14.2350  -21.4252    0.5407 H   0  0
    2.8042  -18.6571    0.3872 H   0  0
    0.2492  -19.3658   -0.9867 H   0  0
    0.6911  -20.5951    1.1130 H   0  0
    0.7872  -19.0997    2.0186 H   0  0
   -1.4402  -20.1739    2.2242 H   0  0
   -1.6773  -20.0779    0.4721 H   0  0
   -1.6052  -18.5953    1.4458 H   0  0
   -0.4642  -17.5225   -2.2037 H   0  0
   -1.0702  -15.1287   -2.3481 H   0  0
   -0.5309  -13.5938   -0.4804 H   0  0
    0.5949  -14.4565    1.5519 H   0  0
    1.2018  -16.8397    1.7218 H   0  0
  1  2  1  0
  1 31  1  0
  2  3  2  0
  2 43  1  0
  3  7  1  0
  3 44  1  0
  4  1  2  0
  4 45  1  0
  5  6  2  0
  5 10  1  0
  6  4  1  0
  6  7  1  0
  7  8  1  0
  8  9  2  0
  9  5  1  0
  9 11  1  0
 10 13  1  0
 10 46  1  0
 10 47  1  0
 11 12  1  0
 11 48  1  0
 11 49  1  0
 12 25  1  0
 12 50  1  0
 12 51  1  0
 13 14  2  0
 14 15  1  0
 14 52  1  0
 15 16  2  0
 15 53  1  0
 16 17  1  0
 16 19  1  0
 17 18  2  0
 17 54  1  0
 18 13  1  0
 18 55  1  0
 19 20  2  0
 20 21  1  0
 20 56  1  0
 21 22  2  0
 21 57  1  0
 22 23  1  0
 22 58  1  0
 23 24  2  0
 23 59  1  0
 24 19  1  0
 24 26  1  0
 25 60  1  0
 25 61  1  0
 25 62  1  0
 26 27  1  0
 27 28  2  0
 28 29  1  0
 29 30  1  0
 29 63  1  0
 30 26  2  0
 31 32  1  0
 31 33  2  0
 32 34  1  0
 32 64  1  0
 34 35  1  0
 34 36  1  0
 34 65  1  0
 35 38  2  0
 36 37  1  0
 36 66  1  0
 36 67  1  0
 37 68  1  0
 37 69  1  0
 37 70  1  0
 38 39  1  0
 38 71  1  0
 39 40  2  0
 39 72  1  0
 40 41  1  0
 40 73  1  0
 41 42  2  0
 41 74  1  0
 42 35  1  0
 42 75  1  0
M  END
> <Name>
CHEMBL3115245

> <Clean Energy>
81.023499

> <chembl_id>
CHEMBL3115245

> <chembl_pref_name>
None

> <efficacy>
0.21

> <Forcefield>
MMFF

> <ForcefieldBase>
MMFF

> <ForcefieldFFML>
<?xml version="1.0" encoding="UTF-8"?>
<!DOCTYPE ffml SYSTEM "Ffml.dtd">
<ffml version="1.0">
<forcefield name="MMFF" derivedFrom="MMFF" base="MMFF">
<atomTypes>
<atomType
name="C100"
element="C"
mass="12.011"
annotation=""/>
<atomType
name="N101"
element="N"
mass="14.007"
annotation=""/>
<atomType
name="O102"
element="O"
mass="16"
annotation=""/>
<atomType
name="H103"
element="H"
mass="1.008"
annotation=""/>
</atomTypes>
<parameters>
</parameters>
</forcefield>
</ffml>

> <Initial Potential Energy>
278.18164

> <Initial RMS Gradient>
36.4803

> <Minimization Criteria>
CONJUG> Minimization exiting with gradient tolerance ( 0.0100000) satisfied.

> <CHARMm Energy>
95.24652

> <Potential Energy>
95.24652

> <RMS Gradient>
0.00999

> <Bond Energy>
10.10155

> <Angle Energy>
12.15537

> <STRBend>
-0.48887

> <Dihedral Energy>
7.40752

> <OOPLane>
0.3664

> <Van der Waals Energy>
74.61164

> <Electrostatic Energy>
-8.9071

> <Hydrogen Bond Energy>
0

> <Solvation Free Energy>
0

> <HasGasteigerCharges>
true

> <REMARK99>
REMARK  99  MacroMolecule created from Mol2 file
REMARK  99  CHEMBL3115245
REMARK  99  PROTEIN
REMARK  99  GASTEIGER
REMARK  99
REMARK  99

$$$$
CHEMBL3597313
  SciTegic05292516403D

 43 45  0  0  0  0            999 V2000
   -2.1344    1.0796   -0.0500 C   0  0
   -2.2164   -0.3125    0.0040 C   0  0
   -1.0791   -1.1223   -0.0949 C   0  0
   -0.8868    1.6969   -0.1968 C   0  0
    0.2818    0.9032   -0.2951 C   0  0
    0.1556   -0.4850   -0.2448 C   0  0
    1.4174   -1.0175   -0.3712 N   0  0
    2.3422   -0.0142   -0.4821 C   0  0
    1.6786    1.1976   -0.4322 C   0  0
    2.3049    2.5560   -0.4984 C   0  0
    3.0561    2.9341    0.7614 C   0  0
    2.4626    2.5759    1.9238 O   0  0
    4.1044    3.5674    0.7489 O   0  0
   -3.3385    1.7228    0.0576 O   0  0
   -3.3435    3.1447   -0.0805 C   0  0
   -4.7873    3.6353    0.0228 C   0  0
   -4.8099    5.0561   -0.1212 O   0  0
   -6.0338    5.6673   -0.0448 C   0  0
   -6.0093    7.0568   -0.1980 C   0  0
   -7.1872    7.8001   -0.1451 C   0  0
   -8.4033    7.1548    0.0669 C   0  0
   -8.4485    5.7664    0.2341 C   0  0
   -7.2581    5.0267    0.1642 C   0  0
   -9.7634    5.0680    0.4239 C   0  0
   -3.1883   -0.7881    0.1209 H   0  0
   -1.1651   -2.2030   -0.0574 H   0  0
   -0.7913    2.7751   -0.2419 H   0  0
    1.6282   -2.0073   -0.3772 H   0  0
    3.3958   -0.2495   -0.5830 H   0  0
    3.0165    2.5727   -1.3329 H   0  0
    1.5569    3.3324   -0.6886 H   0  0
    1.6162    2.0990    1.7996 H   0  0
   -2.7479    3.6114    0.7138 H   0  0
   -2.9305    3.4413   -1.0527 H   0  0
   -5.3828    3.1588   -0.7661 H   0  0
   -5.1933    3.3394    0.9984 H   0  0
   -5.0621    7.5648   -0.3626 H   0  0
   -7.1627    8.8795   -0.2726 H   0  0
   -9.3177    7.7421    0.0990 H   0  0
   -7.3188    3.9496    0.2785 H   0  0
   -9.6479    4.1886    1.0663 H   0  0
  -10.1613    4.7508   -0.5449 H   0  0
  -10.4922    5.7279    0.9060 H   0  0
  1  2  2  0
  1 14  1  0
  2  3  1  0
  2 25  1  0
  3  6  2  0
  3 26  1  0
  4  1  1  0
  4 27  1  0
  5  4  2  0
  5  6  1  0
  6  7  1  0
  7  8  1  0
  7 28  1  0
  8  9  2  0
  8 29  1  0
  9  5  1  0
  9 10  1  0
 10 11  1  0
 10 30  1  0
 10 31  1  0
 11 12  1  0
 11 13  2  0
 12 32  1  0
 14 15  1  0
 15 16  1  0
 15 33  1  0
 15 34  1  0
 16 17  1  0
 16 35  1  0
 16 36  1  0
 17 18  1  0
 18 19  2  0
 19 20  1  0
 19 37  1  0
 20 21  2  0
 20 38  1  0
 21 22  1  0
 21 39  1  0
 22 23  2  0
 22 24  1  0
 23 18  1  0
 23 40  1  0
 24 41  1  0
 24 42  1  0
 24 43  1  0
M  END
> <Name>
CHEMBL3597313

> <Clean Energy>
22.628599

> <chembl_id>
CHEMBL3597313

> <chembl_pref_name>
None

> <efficacy>
0.313

> <Forcefield>
MMFF

> <ForcefieldBase>
MMFF

> <ForcefieldFFML>
<?xml version="1.0" encoding="UTF-8"?>
<!DOCTYPE ffml SYSTEM "Ffml.dtd">
<ffml version="1.0">
<forcefield name="MMFF" derivedFrom="MMFF" base="MMFF">
<atomTypes>
<atomType
name="C100"
element="C"
mass="12.011"
annotation=""/>
<atomType
name="N101"
element="N"
mass="14.007"
annotation=""/>
<atomType
name="O102"
element="O"
mass="16"
annotation=""/>
<atomType
name="H103"
element="H"
mass="1.008"
annotation=""/>
</atomTypes>
<parameters>
</parameters>
</forcefield>
</ffml>

> <Initial Potential Energy>
113.8023

> <Initial RMS Gradient>
29.12417

> <Minimization Criteria>
CONJUG> Minimization exiting with gradient tolerance ( 0.0100000) satisfied.

> <CHARMm Energy>
48.58947

> <Potential Energy>
48.58947

> <RMS Gradient>
0.00881

> <Bond Energy>
3.90182

> <Angle Energy>
16.20053

> <STRBend>
-0.62596

> <Dihedral Energy>
-2.388

> <OOPLane>
0.07081

> <Van der Waals Energy>
42.49689

> <Electrostatic Energy>
-11.06664

> <Hydrogen Bond Energy>
0

> <Solvation Free Energy>
0

> <HasGasteigerCharges>
true

> <REMARK99>
REMARK  99  MacroMolecule created from Mol2 file
REMARK  99  CHEMBL3597313
REMARK  99  PROTEIN
REMARK  99  GASTEIGER
REMARK  99
REMARK  99

$$$$
CHEMBL4867586
  SciTegic05292516403D

 51 54  0  0  0  0            999 V2000
   -0.0338  -12.4920    1.2435 C   0  0
   -0.0261  -13.6125    0.4122 C   0  0
    1.0861  -13.9200   -0.3776 C   0  0
    1.0719  -11.6228    1.3182 C   0  0
    2.1959  -11.9329    0.5230 C   0  0
    2.1868  -13.0566   -0.3003 C   0  0
    3.4222  -13.0392   -0.9165 N   0  0
    4.0991  -11.9118   -0.4882 C   0  0
    3.3893  -11.2635    0.4118 N   0  0
    5.4624  -11.5127   -0.9628 C   0  0
    5.7400  -10.0231   -0.7488 C   0  0
    7.1182   -9.6362   -1.2626 C   0  0
    3.9160  -14.0373   -1.8598 C   0  0
    5.1110  -14.7808   -1.3125 C   0  0
    5.0205  -15.4919   -0.1094 C   0  0
    6.1570  -16.0734    0.4552 C   0  0
    7.4108  -15.9647   -0.1668 C   0  0
    7.4822  -15.3088   -1.4043 C   0  0
    6.3442  -14.7329   -1.9766 C   0  0
    8.6245  -16.4437    0.5163 C   0  0
    9.4818  -17.4321   -0.0049 C   0  0
   10.6351  -17.8091    0.7051 C   0  0
   10.9442  -17.2186    1.9297 C   0  0
   10.1044  -16.2469    2.4584 C   0  0
    8.9601  -15.8639    1.7587 C   0  0
    1.0079  -10.4225    2.2173 C   0  0
    9.2243  -18.0932   -1.2546 C   0  0
    9.0866  -18.6535   -2.2630 N   0  0
   -0.9181  -12.2862    1.8441 H   0  0
   -0.9001  -14.2596    0.3776 H   0  0
    1.0762  -14.7922   -1.0218 H   0  0
    6.2116  -12.1007   -0.4204 H   0  0
    5.5661  -11.7368   -2.0303 H   0  0
    4.9813   -9.4212   -1.2638 H   0  0
    5.6748   -9.7750    0.3176 H   0  0
    7.2978   -8.5691   -1.0991 H   0  0
    7.2072   -9.8354   -2.3353 H   0  0
    7.9018  -10.1964   -0.7425 H   0  0
    3.1167  -14.7484   -2.0893 H   0  0
    4.1538  -13.5051   -2.7879 H   0  0
    4.0740  -15.5602    0.4247 H   0  0
    6.0624  -16.5848    1.4118 H   0  0
    8.4366  -15.2029   -1.9180 H   0  0
    6.4447  -14.2060   -2.9235 H   0  0
   11.2992  -18.5698    0.3010 H   0  0
   11.8379  -17.5143    2.4708 H   0  0
   10.3371  -15.7798    3.4122 H   0  0
    8.3254  -15.0875    2.1860 H   0  0
    1.9371   -9.8455    2.1813 H   0  0
    0.8448  -10.7364    3.2532 H   0  0
    0.1887   -9.7650    1.9093 H   0  0
  1  2  2  0
  1 29  1  0
  2  3  1  0
  2 30  1  0
  3  6  2  0
  3 31  1  0
  4  1  1  0
  4 26  1  0
  5  4  2  0
  5  6  1  0
  6  7  1  0
  7  8  1  0
  7 13  1  0
  8  9  2  0
  8 10  1  0
  9  5  1  0
 10 11  1  0
 10 32  1  0
 10 33  1  0
 11 12  1  0
 11 34  1  0
 11 35  1  0
 12 36  1  0
 12 37  1  0
 12 38  1  0
 13 14  1  0
 13 39  1  0
 13 40  1  0
 14 15  2  0
 15 16  1  0
 15 41  1  0
 16 17  2  0
 16 42  1  0
 17 18  1  0
 17 20  1  0
 18 19  2  0
 18 43  1  0
 19 14  1  0
 19 44  1  0
 20 21  2  0
 21 22  1  0
 21 27  1  0
 22 23  2  0
 22 45  1  0
 23 24  1  0
 23 46  1  0
 24 25  2  0
 24 47  1  0
 25 20  1  0
 25 48  1  0
 26 49  1  0
 26 50  1  0
 26 51  1  0
 27 28  3  0
M  END
> <Name>
CHEMBL4867586

> <Clean Energy>
66.748299

> <chembl_id>
CHEMBL4867586

> <chembl_pref_name>
None

> <efficacy>
0.305792972

> <Forcefield>
MMFF

> <ForcefieldBase>
MMFF

> <ForcefieldFFML>
<?xml version="1.0" encoding="UTF-8"?>
<!DOCTYPE ffml SYSTEM "Ffml.dtd">
<ffml version="1.0">
<forcefield name="MMFF" derivedFrom="MMFF" base="MMFF">
<atomTypes>
<atomType
name="C100"
element="C"
mass="12.011"
annotation=""/>
<atomType
name="N101"
element="N"
mass="14.007"
annotation=""/>
<atomType
name="H102"
element="H"
mass="1.008"
annotation=""/>
</atomTypes>
<parameters>
</parameters>
</forcefield>
</ffml>

> <Initial Potential Energy>
245.19152

> <Initial RMS Gradient>
33.61404

> <Minimization Criteria>
CONJUG> Minimization exiting with gradient tolerance ( 0.0100000) satisfied.

> <CHARMm Energy>
83.81427

> <Potential Energy>
83.81427

> <RMS Gradient>
0.00886

> <Bond Energy>
6.82114

> <Angle Energy>
4.3537

> <STRBend>
-0.74984

> <Dihedral Energy>
2.05425

> <OOPLane>
0.07192

> <Van der Waals Energy>
52.86124

> <Electrostatic Energy>
18.40186

> <Hydrogen Bond Energy>
0

> <Solvation Free Energy>
0

> <HasGasteigerCharges>
true

> <REMARK99>
REMARK  99  MacroMolecule created from Mol2 file
REMARK  99  CHEMBL4867586
REMARK  99  PROTEIN
REMARK  99  GASTEIGER
REMARK  99
REMARK  99

$$$$
CHEMBL2042808
  SciTegic05292516403D

 62 66  0  0  0  0            999 V2000
   28.9197   -8.2829   -1.2544 O   0  0
   27.7609   -7.5046   -1.1886 C   0  0
   28.0628   -6.1159   -0.6979 C   0  0  2  0  0  0
   29.4047   -6.3735   -0.0649 C   0  0
   29.9046   -7.6122   -0.5379 C   0  0
   31.2138   -8.0451   -0.2864 C   0  0
   31.9944   -7.1990    0.5321 C   0  0
   31.4916   -5.9762    1.0223 C   0  0
   30.1928   -5.5732    0.7341 C   0  0
   29.7751   -4.3896    1.2517 O   0  0
   33.3035   -7.5143    0.8276 O   0  0
   33.4611   -7.8097    2.2188 C   0  0
   31.7434   -9.3421   -0.8453 C   0  0
   33.1176   -9.5055   -0.8449 N   0  0
   33.8075  -10.7252   -1.2211 C   0  0
   35.0737  -10.8536   -0.3944 C   0  0
   36.2791  -10.1970   -0.8035 C   0  0
   37.4055  -10.2621    0.0517 C   0  0
   37.3265  -10.9521    1.2658 C   0  0
   36.1595  -11.6014    1.6523 C   0  0
   35.0225  -11.5500    0.8433 C   0  0
   33.7665  -12.2320    1.3242 C   0  0
   38.6112   -9.6419   -0.3100 C   0  0
   38.7406   -8.9853   -1.5282 C   0  0
   37.6511   -8.8908   -2.3816 C   0  0
   36.4312   -9.4714   -2.0142 C   0  0
   40.2549   -8.2980   -1.9771 Cl  0  0
   30.9815  -10.2049   -1.2652 O   0  0
   26.9161   -5.6335    0.1941 C   0  0
   25.5114   -6.0165   -0.2071 C   0  0
   25.3796   -7.1247   -0.9730 C   0  0
   26.5110   -7.9683   -1.3290 C   0  0
   24.1768   -7.6191   -1.4396 O   0  0
   24.2921   -5.2234    0.1750 C   0  0
   24.4575   -3.9219    0.9129 C   0  0
   23.1673   -5.6333   -0.1301 O   0  0
   27.1083   -4.8651    1.1403 O   0  0
   28.2183   -5.1293   -1.8677 C   0  0
   32.1250   -5.3250    1.6202 H   0  0
   28.7976   -4.3958    1.3464 H   0  0
   34.4303   -8.3013    2.3453 H   0  0
   32.6848   -8.4954    2.5768 H   0  0
   33.4697   -6.8911    2.8138 H   0  0
   33.6803   -8.7350   -0.4979 H   0  0
   33.1418  -11.5836   -1.0891 H   0  0
   34.0149  -10.6889   -2.2942 H   0  0
   38.1911  -11.0085    1.9248 H   0  0
   36.1542  -12.1482    2.5945 H   0  0
   33.8994  -12.6583    2.3245 H   0  0
   33.4988  -13.0530    0.6518 H   0  0
   32.9404  -11.5168    1.3870 H   0  0
   39.4628   -9.6826    0.3624 H   0  0
   37.7528   -8.3823   -3.3375 H   0  0
   35.5955   -9.3517   -2.7011 H   0  0
   26.3256   -8.9978   -1.6215 H   0  0
   23.4274   -7.0430   -1.1422 H   0  0
   25.1729   -3.2768    0.3965 H   0  0
   24.7685   -4.1117    1.9429 H   0  0
   23.4967   -3.3979    0.9355 H   0  0
   28.5213   -4.1390   -1.5062 H   0  0
   27.2779   -4.9956   -2.4154 H   0  0
   28.9745   -5.4604   -2.5899 H   0  0
  1  2  1  0
  2  3  1  0
  2 32  2  0
  3  4  1  0
  3 29  1  0
  3 38  1  0
  4  5  2  0
  4  9  1  0
  5  1  1  0
  5  6  1  0
  6  7  2  0
  6 13  1  0
  7  8  1  0
  7 11  1  0
  8  9  2  0
  8 39  1  0
  9 10  1  0
 10 40  1  0
 11 12  1  0
 12 41  1  0
 12 42  1  0
 12 43  1  0
 13 14  1  0
 13 28  2  0
 14 15  1  0
 14 44  1  0
 15 16  1  0
 15 45  1  0
 15 46  1  0
 16 21  1  0
 17 16  2  0
 17 26  1  0
 18 17  1  0
 18 23  1  0
 19 18  2  0
 19 47  1  0
 20 19  1  0
 20 48  1  0
 21 20  2  0
 21 22  1  0
 22 49  1  0
 22 50  1  0
 22 51  1  0
 23 24  2  0
 23 52  1  0
 24 25  1  0
 24 27  1  0
 25 26  2  0
 25 53  1  0
 26 54  1  0
 29 30  1  0
 29 37  2  0
 30 31  2  0
 30 34  1  0
 31 32  1  0
 31 33  1  0
 32 55  1  0
 33 56  1  0
 34 35  1  0
 34 36  2  0
 35 57  1  0
 35 58  1  0
 35 59  1  0
 38 60  1  0
 38 61  1  0
 38 62  1  0
M  END
> <Name>
CHEMBL2042808

> <Clean Energy>
63.8004

> <chembl_id>
CHEMBL2042808

> <chembl_pref_name>
None

> <efficacy>
0.245283019

> <Forcefield>
MMFF

> <ForcefieldBase>
MMFF

> <ForcefieldFFML>
<?xml version="1.0" encoding="UTF-8"?>
<!DOCTYPE ffml SYSTEM "Ffml.dtd">
<ffml version="1.0">
<forcefield name="MMFF" derivedFrom="MMFF" base="MMFF">
<atomTypes>
<atomType
name="O100"
element="O"
mass="16"
annotation=""/>
<atomType
name="C101"
element="C"
mass="12.011"
annotation=""/>
<atomType
name="N102"
element="N"
mass="14.007"
annotation=""/>
<atomType
name="Cl103"
element="Cl"
mass="35.453"
annotation=""/>
<atomType
name="H104"
element="H"
mass="1.008"
annotation=""/>
</atomTypes>
<parameters>
</parameters>
</forcefield>
</ffml>

> <Initial Potential Energy>
295.20867

> <Initial RMS Gradient>
77.33442

> <Minimization Criteria>
STEEPD> Minimization exiting with gradient tolerance ( 3.0000000) satisfied.

> <CHARMm Energy>
58.73071

> <Potential Energy>
58.73071

> <RMS Gradient>
0.05822

> <Bond Energy>
11.89085

> <Angle Energy>
26.81528

> <STRBend>
0.49535

> <Dihedral Energy>
13.72047

> <OOPLane>
0.57778

> <Van der Waals Energy>
80.01306

> <Electrostatic Energy>
-74.78207

> <Hydrogen Bond Energy>
0

> <Solvation Free Energy>
0

> <HasGasteigerCharges>
true

> <REMARK99>
REMARK  99  MacroMolecule created from Mol2 file
REMARK  99  CHEMBL2042808
REMARK  99  PROTEIN
REMARK  99  GASTEIGER
REMARK  99
REMARK  99

$$$$
CHEMBL455127
  SciTegic05292516403D

 57 60  0  0  0  0            999 V2000
    1.1764   -5.8185   -0.4534 C   0  0
    0.8162   -7.1247   -0.7447 C   0  0
    1.7065   -8.1526   -0.4460 C   0  0
    2.3483   -5.4304    0.0987 N   0  0
    3.1856   -6.4560    0.3707 C   0  0
    2.9342   -7.8067    0.1446 C   0  0
    4.0833   -8.5274    0.5732 C   0  0
    4.9482   -7.6139    1.1728 C   0  0
    4.4532   -6.3475    0.9043 N   0  0
    6.1950   -7.8710    1.9488 C   0  0
    5.1323   -5.0760    1.1600 C   0  0
    6.4598   -4.9723    0.4411 C   0  0
    7.6823   -4.9864    1.1417 C   0  0
    8.9153   -4.9533    0.4690 C   0  0
    8.9252   -4.8637   -0.9223 C   0  0
    7.7192   -4.8211   -1.6287 C   0  0
    6.5059   -4.8792   -0.9494 C   0  0
    4.3140   -9.9594    0.4356 C   0  0
    3.4762  -10.8017    0.7436 O   0  0
    5.6157  -10.3839   -0.1453 C   0  0
    6.2353  -11.5397    0.3377 C   0  0
    7.4827  -11.9254   -0.1639 C   0  0
    8.1056  -11.1618   -1.1543 C   0  0
    7.4647  -10.0298   -1.6611 C   0  0
    6.2239   -9.6384   -1.1635 C   0  0
   10.0141   -5.0323    1.2836 O   0  0
   11.3306   -4.9533    0.7009 C   0  0  2  0  0  0
   12.3279   -5.6070    1.6693 C   0  0
   11.7247   -3.4953    0.5013 C   0  0
   11.7277   -6.2303    2.7136 O   0  0
   13.5467   -5.5820    1.5375 O   0  0
    9.3257  -11.4112   -1.7134 O   0  0
   10.0982  -12.4440   -1.1176 C   0  0
    5.3712   -4.8459   -1.6598 F   0  0
    0.4869   -5.0070   -0.6782 H   0  0
   -0.1487   -7.3413   -1.1911 H   0  0
    1.4476   -9.1890   -0.6470 H   0  0
    6.3175   -7.1475    2.7603 H   0  0
    7.0736   -7.8359    1.2987 H   0  0
    6.1632   -8.8605    2.4172 H   0  0
    4.4827   -4.2510    0.8490 H   0  0
    5.2560   -5.0007    2.2463 H   0  0
    7.6783   -5.0463    2.2289 H   0  0
    9.8440   -4.8212   -1.4980 H   0  0
    7.7171   -4.7483   -2.7128 H   0  0
    5.7578  -12.1313    1.1156 H   0  0
    7.9396  -12.8247    0.2378 H   0  0
    7.9405   -9.4461   -2.4460 H   0  0
    5.7464   -8.7529   -1.5761 H   0  0
   11.3911   -5.5419   -0.2210 H   0  0
   12.7359   -3.4085    0.0912 H   0  0
   11.6967   -2.9531    1.4533 H   0  0
   11.0348   -2.9820   -0.1749 H   0  0
   10.7583   -6.0955    2.6644 H   0  0
   11.0733  -12.4615   -1.6145 H   0  0
    9.6302  -13.4221   -1.2705 H   0  0
   10.2719  -12.2503   -0.0535 H   0  0
  1  2  2  0
  1 35  1  0
  2  3  1  0
  2 36  1  0
  3  6  2  0
  3 37  1  0
  4  1  1  0
  5  4  2  0
  5  6  1  0
  6  7  1  0
  7  8  2  0
  7 18  1  0
  8  9  1  0
  8 10  1  0
  9  5  1  0
  9 11  1  0
 10 38  1  0
 10 39  1  0
 10 40  1  0
 11 12  1  0
 11 41  1  0
 11 42  1  0
 12 13  2  0
 13 14  1  0
 13 43  1  0
 14 15  2  0
 14 26  1  0
 15 16  1  0
 15 44  1  0
 16 17  2  0
 16 45  1  0
 17 12  1  0
 17 34  1  0
 18 19  2  0
 18 20  1  0
 20 21  2  0
 21 22  1  0
 21 46  1  0
 22 23  2  0
 22 47  1  0
 23 24  1  0
 23 32  1  0
 24 25  2  0
 24 48  1  0
 25 20  1  0
 25 49  1  0
 26 27  1  0
 27 28  1  0
 27 29  1  0
 27 50  1  0
 28 30  1  0
 28 31  2  0
 29 51  1  0
 29 52  1  0
 29 53  1  0
 30 54  1  0
 32 33  1  0
 33 55  1  0
 33 56  1  0
 33 57  1  0
M  END
> <Name>
CHEMBL455127

> <Clean Energy>
87.465599

> <chembl_id>
CHEMBL455127

> <chembl_pref_name>
None

> <efficacy>
0.43

> <Forcefield>
MMFF

> <ForcefieldBase>
MMFF

> <ForcefieldFFML>
<?xml version="1.0" encoding="UTF-8"?>
<!DOCTYPE ffml SYSTEM "Ffml.dtd">
<ffml version="1.0">
<forcefield name="MMFF" derivedFrom="MMFF" base="MMFF">
<atomTypes>
<atomType
name="C100"
element="C"
mass="12.011"
annotation=""/>
<atomType
name="N101"
element="N"
mass="14.007"
annotation=""/>
<atomType
name="O102"
element="O"
mass="16"
annotation=""/>
<atomType
name="F103"
element="F"
mass="18.998"
annotation=""/>
<atomType
name="H104"
element="H"
mass="1.008"
annotation=""/>
</atomTypes>
<parameters>
</parameters>
</forcefield>
</ffml>

> <Initial Potential Energy>
290.77814

> <Initial RMS Gradient>
36.37005

> <Minimization Criteria>
STEEPD> Minimization exiting with gradient tolerance ( 3.0000000) satisfied.

> <CHARMm Energy>
105.29668

> <Potential Energy>
105.29668

> <RMS Gradient>
0.10012

> <Bond Energy>
6.20397

> <Angle Energy>
18.88895

> <STRBend>
1.06665

> <Dihedral Energy>
8.99593

> <OOPLane>
0.03613

> <Van der Waals Energy>
64.2931

> <Electrostatic Energy>
5.81195

> <Hydrogen Bond Energy>
0

> <Solvation Free Energy>
0

> <HasGasteigerCharges>
true

> <REMARK99>
REMARK  99  MacroMolecule created from Mol2 file
REMARK  99  CHEMBL455127
REMARK  99  PROTEIN
REMARK  99  GASTEIGER
REMARK  99
REMARK  99

$$$$
CHEMBL2312714
  SciTegic05292516403D

 45 47  0  0  0  0            999 V2000
   22.1913   -7.5816    1.8620 C   0  0
   21.5670   -8.7171    1.3576 C   0  0
   22.2169   -9.4828    0.3899 C   0  0
   23.5013   -9.1277   -0.0775 C   0  0
   24.1394   -7.9685    0.4246 C   0  0
   23.4611   -7.2130    1.4000 C   0  0
   25.4670   -7.5168   -0.0436 C   0  0
   26.6190   -7.6799    0.7440 C   0  0
   27.8825   -7.2383    0.3045 C   0  0
   28.0172   -6.6211   -0.9356 C   0  0
   26.8749   -6.4520   -1.7256 C   0  0
   25.6169   -6.8902   -1.2872 C   0  0
   29.1681   -6.1388   -1.4956 O   0  0
   30.4372   -6.2740   -0.8080 C   0  0  2  0  0  0
   31.3227   -5.1298   -1.3444 C   0  0
   30.6467   -4.2669   -2.1486 O   0  0
   32.5084   -4.9658   -1.0938 O   0  0
   31.0671   -7.6311   -1.1562 C   0  0
   32.0752   -8.1240   -0.1432 C   0  0
   33.4423   -7.8527   -0.3068 C   0  0
   34.3778   -8.3055    0.6260 C   0  0
   33.9575   -9.0384    1.7328 C   0  0
   32.6023   -9.3173    1.9059 C   0  0
   31.6643   -8.8630    0.9744 C   0  0
   24.1513   -9.9907   -1.1272 C   0  0
   21.6998   -6.9711    2.6135 H   0  0
   20.5783   -9.0063    1.7125 H   0  0
   21.7175  -10.3671   -0.0018 H   0  0
   23.9222   -6.3129    1.8034 H   0  0
   26.5382   -8.1609    1.7180 H   0  0
   28.7277   -7.3961    0.9651 H   0  0
   26.9536   -5.9731   -2.6992 H   0  0
   24.7471   -6.7346   -1.9245 H   0  0
   30.3163   -6.0926    0.2655 H   0  0
   29.7187   -4.5675   -2.2525 H   0  0
   30.2868   -8.3968   -1.2583 H   0  0
   31.5379   -7.5900   -2.1478 H   0  0
   33.7898   -7.2762   -1.1623 H   0  0
   35.4341   -8.0830    0.4887 H   0  0
   34.6859   -9.3919    2.4585 H   0  0
   32.2760   -9.8937    2.7678 H   0  0
   30.6152   -9.1047    1.1241 H   0  0
   24.1435   -9.4799   -2.0950 H   0  0
   23.6215  -10.9422   -1.2447 H   0  0
   25.1817  -10.2329   -0.8478 H   0  0
  1  2  2  0
  1 26  1  0
  2  3  1  0
  2 27  1  0
  3  4  2  0
  3 28  1  0
  4  5  1  0
  4 25  1  0
  5  6  2  0
  5  7  1  0
  6  1  1  0
  6 29  1  0
  7  8  2  0
  8  9  1  0
  8 30  1  0
  9 10  2  0
  9 31  1  0
 10 11  1  0
 10 13  1  0
 11 12  2  0
 11 32  1  0
 12  7  1  0
 12 33  1  0
 13 14  1  0
 14 15  1  0
 14 18  1  0
 14 34  1  0
 15 16  1  0
 15 17  2  0
 16 35  1  0
 18 19  1  0
 18 36  1  0
 18 37  1  0
 19 20  2  0
 20 21  1  0
 20 38  1  0
 21 22  2  0
 21 39  1  0
 22 23  1  0
 22 40  1  0
 23 24  2  0
 23 41  1  0
 24 19  1  0
 24 42  1  0
 25 43  1  0
 25 44  1  0
 25 45  1  0
M  END
> <Name>
CHEMBL2312714

> <Clean Energy>
25.9743

> <chembl_id>
CHEMBL2312714

> <chembl_pref_name>
None

> <efficacy>
0.42

> <Forcefield>
MMFF

> <ForcefieldBase>
MMFF

> <ForcefieldFFML>
<?xml version="1.0" encoding="UTF-8"?>
<!DOCTYPE ffml SYSTEM "Ffml.dtd">
<ffml version="1.0">
<forcefield name="MMFF" derivedFrom="MMFF" base="MMFF">
<atomTypes>
<atomType
name="C100"
element="C"
mass="12.011"
annotation=""/>
<atomType
name="O101"
element="O"
mass="16"
annotation=""/>
<atomType
name="H102"
element="H"
mass="1.008"
annotation=""/>
</atomTypes>
<parameters>
</parameters>
</forcefield>
</ffml>

> <Initial Potential Energy>
206.1043

> <Initial RMS Gradient>
37.11035

> <Minimization Criteria>
CONJUG> Minimization exiting with gradient tolerance ( 0.0100000) satisfied.

> <CHARMm Energy>
77.45436

> <Potential Energy>
77.45436

> <RMS Gradient>
0.00971

> <Bond Energy>
7.62048

> <Angle Energy>
11.9644

> <STRBend>
-0.0668

> <Dihedral Energy>
7.07733

> <OOPLane>
0.0087

> <Van der Waals Energy>
53.80794

> <Electrostatic Energy>
-2.9577

> <Hydrogen Bond Energy>
0

> <Solvation Free Energy>
0

> <HasGasteigerCharges>
true

> <REMARK99>
REMARK  99  MacroMolecule created from Mol2 file
REMARK  99  CHEMBL2312714
REMARK  99  PROTEIN
REMARK  99  GASTEIGER
REMARK  99
REMARK  99

$$$$
CHEMBL2331772
  SciTegic05292516403D

 37 39  0  0  0  0            999 V2000
   29.6373   -3.8369    0.2258 C   0  0
   29.1008   -4.1271   -1.0339 C   0  0
   28.7616   -3.0745   -1.8913 C   0  0
   28.8435   -1.7509   -1.4510 C   0  0
   29.2646   -1.4758   -0.1503 C   0  0
   29.7157   -2.5149    0.6649 C   0  0
   28.0607    0.9627    0.0918 S   0  0
   29.2758   -0.1666    0.4039 N   0  0
   26.5471    0.0796    0.3906 C   0  0
   25.4408    0.1561   -0.4602 C   0  0
   24.3051   -0.6183   -0.1836 C   0  0
   24.2689   -1.4439    0.9382 C   0  0
   25.3531   -1.4976    1.8075 C   0  0
   26.4878   -0.7305    1.5410 C   0  0
   28.9079   -5.4282   -1.4478 O   0  0
   26.5836   -5.5157   -0.6885 C   0  0
   27.8485   -6.0766   -0.8510 C   0  0
   28.0627   -7.3727   -0.3895 C   0  0
   27.0303   -8.0309    0.2684 C   0  0
   25.8139   -7.3788    0.4191 C   0  0
   25.5622   -6.1333   -0.0514 N   0  0
   27.2660   -9.6088    0.8998 Cl  0  0
   28.1825    1.3295   -1.2999 O   0  0
   28.1731    1.9493    1.1447 O   0  0
   22.8692   -2.3877    1.2610 Cl  0  0
   25.3237    1.1900   -1.8350 Cl  0  0
   30.2089   -5.0695    1.2912 Cl  0  0
   28.1766   -3.3732   -3.4877 Cl  0  0
   28.5652   -0.9511   -2.1333 H   0  0
   30.1032   -2.3061    1.6593 H   0  0
   29.7649    0.0147    1.2802 H   0  0
   23.4392   -0.5702   -0.8414 H   0  0
   25.3178   -2.1295    2.6924 H   0  0
   27.3210   -0.7684    2.2397 H   0  0
   26.3367   -4.5301   -1.0703 H   0  0
   29.0324   -7.8446   -0.5151 H   0  0
   24.9813   -7.8461    0.9363 H   0  0
  1  2  1  0
  1  6  2  0
  1 27  1  0
  2  3  2  0
  2 15  1  0
  3  4  1  0
  3 28  1  0
  4  5  2  0
  4 29  1  0
  5  6  1  0
  5  8  1  0
  6 30  1  0
  7  8  1  0
  7  9  1  0
  7 23  2  0
  7 24  2  0
  8 31  1  0
  9 10  1  0
  9 14  2  0
 10 11  2  0
 10 26  1  0
 11 12  1  0
 11 32  1  0
 12 13  2  0
 12 25  1  0
 13 14  1  0
 13 33  1  0
 14 34  1  0
 15 17  1  0
 16 17  1  0
 16 21  2  0
 16 35  1  0
 17 18  2  0
 18 19  1  0
 18 36  1  0
 19 20  2  0
 19 22  1  0
 20 21  1  0
 20 37  1  0
M  END
> <Name>
CHEMBL2331772

> <Clean Energy>
51.859299

> <chembl_id>
CHEMBL2331772

> <chembl_pref_name>
None

> <efficacy>
0.16

> <Forcefield>
MMFF

> <ForcefieldBase>
MMFF

> <ForcefieldFFML>
<?xml version="1.0" encoding="UTF-8"?>
<!DOCTYPE ffml SYSTEM "Ffml.dtd">
<ffml version="1.0">
<forcefield name="MMFF" derivedFrom="MMFF" base="MMFF">
<atomTypes>
<atomType
name="C100"
element="C"
mass="12.011"
annotation=""/>
<atomType
name="S101"
element="S"
mass="32.066"
annotation=""/>
<atomType
name="N102"
element="N"
mass="14.007"
annotation=""/>
<atomType
name="O103"
element="O"
mass="16"
annotation=""/>
<atomType
name="Cl104"
element="Cl"
mass="35.453"
annotation=""/>
<atomType
name="H105"
element="H"
mass="1.008"
annotation=""/>
</atomTypes>
<parameters>
</parameters>
</forcefield>
</ffml>

> <Initial Potential Energy>
534.26308

> <Initial RMS Gradient>
210.66246

> <Minimization Criteria>
STEEPD> Minimization exiting with gradient tolerance ( 3.0000000) satisfied.

> <CHARMm Energy>
15.71881

> <Potential Energy>
15.71881

> <RMS Gradient>
0.06741

> <Bond Energy>
3.67266

> <Angle Energy>
13.59165

> <STRBend>
1.04059

> <Dihedral Energy>
8.6726

> <OOPLane>
0.02753

> <Van der Waals Energy>
51.60305

> <Electrostatic Energy>
-62.88926

> <Hydrogen Bond Energy>
0

> <Solvation Free Energy>
0

> <HasGasteigerCharges>
true

> <REMARK99>
REMARK  99  MacroMolecule created from Mol2 file
REMARK  99  CHEMBL2331772
REMARK  99  PROTEIN
REMARK  99  GASTEIGER
REMARK  99
REMARK  99

$$$$
CHEMBL574824
  SciTegic05292516403D

 47 49  0  0  0  0            999 V2000
    8.6330  -18.5605    0.2239 C   0  0
    9.7649  -18.6620   -0.5923 C   0  0
   10.9789  -18.0906   -0.1955 C   0  0
   11.0640  -17.4025    1.0136 C   0  0
    9.9398  -17.3108    1.8356 C   0  0
    8.7326  -17.8818    1.4453 C   0  0
   12.1635  -16.7738    1.5159 O   0  0
   13.3669  -16.7131    0.7223 C   0  0  1  0  0  0
   14.0601  -15.4181    1.1574 C   0  0
   14.2388  -17.9277    1.0593 C   0  0
   15.4040  -18.1575    0.1277 C   0  0
   16.6871  -17.7084    0.4755 C   0  0
   17.7767  -17.9343   -0.3677 C   0  0
   17.5947  -18.6102   -1.5720 C   0  0
   16.3209  -19.0529   -1.9334 C   0  0
   15.2294  -18.8282   -1.0894 C   0  0
   13.4555  -14.8021    2.2068 O   0  0
   15.0653  -14.9547    0.6395 O   0  0
    7.2951  -19.1077   -0.2106 C   0  0
    6.4526  -17.9916   -0.5834 N   0  0
    5.0778  -18.0080   -0.6037 C   0  0
    4.3943  -16.8166   -0.8872 C   0  0
    3.0022  -16.7573   -0.8715 C   0  0
    2.2698  -17.8985   -0.5655 C   0  0
    2.9260  -19.0942   -0.2901 C   0  0
    4.3189  -19.1454   -0.3110 C   0  0
    9.7060  -19.1756   -1.5500 H   0  0
   11.8283  -18.2005   -0.8610 H   0  0
    9.9936  -16.7803    2.7832 H   0  0
    7.8562  -17.7779    2.0836 H   0  0
   13.1419  -16.5959   -0.3432 H   0  0
   14.6073  -17.8456    2.0913 H   0  0
   13.6267  -18.8393    1.0671 H   0  0
   16.8376  -17.1652    1.4058 H   0  0
   18.7671  -17.5789   -0.0887 H   0  0
   18.4477  -18.7862   -2.2264 H   0  0
   16.1798  -19.5771   -2.8749 H   0  0
   14.2473  -19.1897   -1.3861 H   0  0
   12.6373  -15.2963    2.4408 H   0  0
    7.4069  -19.7969   -1.0551 H   0  0
    6.8815  -19.6765    0.6308 H   0  0
    6.9295  -17.1499   -0.8854 H   0  0
    4.9611  -15.9154   -1.1118 H   0  0
    2.4846  -15.8269   -1.0928 H   0  0
    1.1848  -17.8573   -0.5443 H   0  0
    2.3487  -19.9871   -0.0599 H   0  0
    4.8052  -20.0899   -0.0895 H   0  0
  1  2  2  0
  1 19  1  0
  2  3  1  0
  2 27  1  0
  3  4  2  0
  3 28  1  0
  4  5  1  0
  4  7  1  0
  5  6  2  0
  5 29  1  0
  6  1  1  0
  6 30  1  0
  7  8  1  0
  8  9  1  0
  8 10  1  0
  8 31  1  0
  9 17  1  0
  9 18  2  0
 10 11  1  0
 10 32  1  0
 10 33  1  0
 11 12  2  0
 12 13  1  0
 12 34  1  0
 13 14  2  0
 13 35  1  0
 14 15  1  0
 14 36  1  0
 15 16  2  0
 15 37  1  0
 16 11  1  0
 16 38  1  0
 17 39  1  0
 19 20  1  0
 19 40  1  0
 19 41  1  0
 20 42  1  0
 21 20  1  0
 21 22  2  0
 22 23  1  0
 22 43  1  0
 23 24  2  0
 23 44  1  0
 24 25  1  0
 24 45  1  0
 25 26  2  0
 25 46  1  0
 26 21  1  0
 26 47  1  0
M  END
> <Name>
CHEMBL574824

> <Clean Energy>
10.9272

> <chembl_id>
CHEMBL574824

> <chembl_pref_name>
None

> <efficacy>
0.26

> <Forcefield>
MMFF

> <ForcefieldBase>
MMFF

> <ForcefieldFFML>
<?xml version="1.0" encoding="UTF-8"?>
<!DOCTYPE ffml SYSTEM "Ffml.dtd">
<ffml version="1.0">
<forcefield name="MMFF" derivedFrom="MMFF" base="MMFF">
<atomTypes>
<atomType
name="C100"
element="C"
mass="12.011"
annotation=""/>
<atomType
name="O101"
element="O"
mass="16"
annotation=""/>
<atomType
name="N102"
element="N"
mass="14.007"
annotation=""/>
<atomType
name="H103"
element="H"
mass="1.008"
annotation=""/>
</atomTypes>
<parameters>
</parameters>
</forcefield>
</ffml>

> <Initial Potential Energy>
144.51025

> <Initial RMS Gradient>
31.09751

> <Minimization Criteria>
STEEPD> Minimization exiting with gradient tolerance ( 3.0000000) satisfied.

> <CHARMm Energy>
57.92557

> <Potential Energy>
57.92557

> <RMS Gradient>
0.07983

> <Bond Energy>
5.23314

> <Angle Energy>
17.48287

> <STRBend>
-0.8195

> <Dihedral Energy>
5.07154

> <OOPLane>
0.04204

> <Van der Waals Energy>
57.16713

> <Electrostatic Energy>
-26.25166

> <Hydrogen Bond Energy>
0

> <Solvation Free Energy>
0

> <HasGasteigerCharges>
true

> <REMARK99>
REMARK  99  MacroMolecule created from Mol2 file
REMARK  99  CHEMBL574824
REMARK  99  PROTEIN
REMARK  99  GASTEIGER
REMARK  99
REMARK  99

$$$$
CHEMBL522936
  SciTegic05292516403D

 42 44  0  0  0  0            999 V2000
    5.2705   -1.0119   -0.3702 C   0  0
    5.4267   -2.3488   -0.7287 C   0  0
    6.7094   -2.8750   -0.8570 C   0  0
    7.8330   -2.0640   -0.6262 C   0  0
    7.7028   -0.7111   -0.2609 C   0  0
    6.3955   -0.2046   -0.1399 C   0  0
    8.8893    0.1416   -0.0056 C   0  0
    9.9745    0.1868   -0.8975 C   0  0
   11.1066    0.9893   -0.6529 C   0  0
   11.1897    1.7583    0.5041 C   0  0
   10.1100    1.7423    1.3897 C   0  0
    8.9810    0.9439    1.1426 C   0  0
   12.2265    2.5745    0.8704 O   0  0
   13.5495    2.3173    0.3493 C   0  0  2  0  0  0
   14.2545    1.2078    1.1510 C   0  0
   14.0935   -0.1646    0.5371 C   0  0
   13.2144   -1.1025    1.0939 C   0  0
   13.0599   -2.3604    0.5091 C   0  0
   13.7885   -2.6959   -0.6305 C   0  0
   14.6732   -1.7743   -1.1866 C   0  0
   14.8245   -0.5139   -0.6073 C   0  0
   14.3685    3.6080    0.5263 C   0  0
   13.6640    4.6323    1.0688 O   0  0
   15.5465    3.7308    0.2140 O   0  0
    4.2725   -0.5905   -0.2696 H   0  0
    4.5522   -2.9766   -0.9064 H   0  0
    6.8441   -3.9176   -1.1338 H   0  0
    8.8223   -2.5082   -0.7209 H   0  0
    6.2386    0.8390    0.1266 H   0  0
    9.9485   -0.4032   -1.8126 H   0  0
   11.8978    0.9744   -1.3949 H   0  0
   10.1429    2.3419    2.2963 H   0  0
    8.1743    0.9437    1.8735 H   0  0
   13.5234    2.1462   -0.7320 H   0  0
   15.3333    1.3930    1.2340 H   0  0
   13.8762    1.1924    2.1816 H   0  0
   12.6328   -0.8573    1.9802 H   0  0
   12.3705   -3.0788    0.9451 H   0  0
   13.6720   -3.6781   -1.0807 H   0  0
   15.2552   -2.0393   -2.0665 H   0  0
   15.5282    0.1901   -1.0487 H   0  0
   12.7421    4.3481    1.2496 H   0  0
  1  2  2  0
  1 25  1  0
  2  3  1  0
  2 26  1  0
  3  4  2  0
  3 27  1  0
  4  5  1  0
  4 28  1  0
  5  6  2  0
  5  7  1  0
  6  1  1  0
  6 29  1  0
  7  8  2  0
  8  9  1  0
  8 30  1  0
  9 10  2  0
  9 31  1  0
 10 11  1  0
 10 13  1  0
 11 12  2  0
 11 32  1  0
 12  7  1  0
 12 33  1  0
 13 14  1  0
 14 15  1  0
 14 22  1  0
 14 34  1  0
 15 16  1  0
 15 35  1  0
 15 36  1  0
 16 17  2  0
 17 18  1  0
 17 37  1  0
 18 19  2  0
 18 38  1  0
 19 20  1  0
 19 39  1  0
 20 21  2  0
 20 40  1  0
 21 16  1  0
 21 41  1  0
 22 23  1  0
 22 24  2  0
 23 42  1  0
M  END
> <Name>
CHEMBL522936

> <Clean Energy>
18.7586

> <chembl_id>
CHEMBL522936

> <chembl_pref_name>
None

> <efficacy>
0.24

> <Forcefield>
MMFF

> <ForcefieldBase>
MMFF

> <ForcefieldFFML>
<?xml version="1.0" encoding="UTF-8"?>
<!DOCTYPE ffml SYSTEM "Ffml.dtd">
<ffml version="1.0">
<forcefield name="MMFF" derivedFrom="MMFF" base="MMFF">
<atomTypes>
<atomType
name="C100"
element="C"
mass="12.011"
annotation=""/>
<atomType
name="O101"
element="O"
mass="16"
annotation=""/>
<atomType
name="H102"
element="H"
mass="1.008"
annotation=""/>
</atomTypes>
<parameters>
</parameters>
</forcefield>
</ffml>

> <Initial Potential Energy>
152.08807

> <Initial RMS Gradient>
32.412

> <Minimization Criteria>
CONJUG> Minimization exiting with gradient tolerance ( 0.0100000) satisfied.

> <CHARMm Energy>
69.13682

> <Potential Energy>
69.13682

> <RMS Gradient>
0.00881

> <Bond Energy>
7.12371

> <Angle Energy>
10.87979

> <STRBend>
-0.10924

> <Dihedral Energy>
5.26606

> <OOPLane>
0.0099

> <Van der Waals Energy>
51.57687

> <Electrostatic Energy>
-5.61029

> <Hydrogen Bond Energy>
0

> <Solvation Free Energy>
0

> <HasGasteigerCharges>
true

> <REMARK99>
REMARK  99  MacroMolecule created from Mol2 file
REMARK  99  CHEMBL522936
REMARK  99  PROTEIN
REMARK  99  GASTEIGER
REMARK  99
REMARK  99

$$$$
CHEMBL501440
  SciTegic05292516403D

 69 72  0  0  0  0            999 V2000
    4.3448    2.1467    0.6346 C   0  0
    3.3076    1.4942   -1.4853 C   0  0
    5.2645    1.8711    1.8064 C   0  0
   -1.0395    1.3937   -1.7242 C   0  0
    5.6054   -0.4393    0.9430 C   0  0
    2.7319    3.6154   -0.4271 C   0  0
    1.2660   -3.0482   -1.9440 C   0  0
   -1.6768    5.4728   -1.6869 C   0  0
   -2.7603   -3.5148    0.6238 C   0  0
   -3.3057   -2.6936    1.6179 C   0  0
   -3.4363   -4.6762    0.2526 C   0  0
   -4.5229   -3.0288    2.2304 C   0  0
   -4.6586   -5.0061    0.8635 C   0  0
   -5.2208   -4.1892    1.8589 C   0  0
   -6.5260   -4.5548    2.5417 C   0  0
    2.9689    7.5373    2.5712 O   0  0
    2.8064    6.4154    2.1107 C   0  0
    1.5858    5.8406    2.1555 O   0  0
    3.8628    5.5814    1.4065 C   0  0
    3.7474    4.1889    1.6955 O   0  0
    3.6131    3.3519    0.6169 C   0  0
    2.6079    2.7095   -1.4816 C   0  0
    6.2903    0.7762    1.5394 C   0  0
    4.9810   -0.0892   -0.4048 C   0  0
    4.1786    1.1965   -0.4111 C   0  0
    3.1215    0.4445   -2.9386 S   0  0
    1.8438   -0.7183   -2.4388 C   0  0
    2.1975   -2.0801   -2.3573 C   0  0
    0.5166   -0.3401   -2.1742 C   0  0
    0.1820    0.9868   -2.3451 O   0  0
   -1.1826    2.8529   -1.7600 C   0  0
   -1.3888    4.0350   -1.7340 C   0  0
   -0.5571    6.2393   -1.0040 C   0  0
   -0.4066   -1.3245   -1.7793 C   0  0
   -0.0424   -2.6755   -1.6227 C   0  0
   -1.0735   -3.6622   -1.0927 C   0  0
   -1.5666   -3.0762    0.1237 O   0  0
   -6.3472   -5.0499    3.8021 F   0  0
   -7.2446   -5.5120    1.8818 F   0  0
   -7.3666   -3.4904    2.6763 F   0  0
    5.8111    2.7821    2.0785 H   0  0
    4.6439    1.5862    2.6653 H   0  0
   -1.8882    0.9555   -2.2625 H   0  0
   -1.0604    1.0721   -0.6751 H   0  0
    6.3255   -1.2548    0.8133 H   0  0
    4.8310   -0.8019    1.6308 H   0  0
    2.1108    4.5050   -0.4301 H   0  0
    1.5760   -4.0906   -1.8695 H   0  0
   -2.6160    5.6445   -1.1493 H   0  0
   -1.8126    5.8569   -2.7040 H   0  0
   -2.7785   -1.7883    1.9187 H   0  0
   -3.0366   -5.3556   -0.4945 H   0  0
   -4.9227   -2.3744    3.0037 H   0  0
   -5.1684   -5.9180    0.5560 H   0  0
    1.0489    6.4990    2.6480 H   0  0
    3.8515    5.8234    0.3380 H   0  0
    4.8347    5.8971    1.8024 H   0  0
    1.9315    2.9512   -2.2993 H   0  0
    7.0628    1.1428    0.8516 H   0  0
    6.7938    0.5071    2.4747 H   0  0
    5.7782    0.0058   -1.1528 H   0  0
    4.3493   -0.9349   -0.6911 H   0  0
    3.2166   -2.3854   -2.6008 H   0  0
   -0.7888    7.3087   -0.9761 H   0  0
    0.3913    6.1104   -1.5368 H   0  0
   -0.4138    5.8958    0.0261 H   0  0
   -1.4362   -1.0619   -1.5534 H   0  0
   -1.8656   -3.7747   -1.8424 H   0  0
   -0.6133   -4.6299   -0.8680 H   0  0
  1  3  1  0
  1 21  2  0
  2 22  1  0
  2 26  1  0
  3 41  1  0
  3 42  1  0
  4 30  1  0
  4 43  1  0
  4 44  1  0
  5 45  1  0
  5 46  1  0
  6 21  1  0
  6 22  2  0
  6 47  1  0
  7 35  2  0
  7 48  1  0
  8 33  1  0
  8 49  1  0
  8 50  1  0
  9 10  1  0
  9 11  2  0
  9 37  1  0
 10 12  2  0
 10 51  1  0
 11 13  1  0
 11 52  1  0
 12 14  1  0
 12 53  1  0
 13 14  2  0
 13 54  1  0
 14 15  1  0
 15 38  1  0
 15 39  1  0
 15 40  1  0
 17 16  2  0
 17 18  1  0
 18 55  1  0
 19 17  1  0
 19 20  1  0
 19 56  1  0
 19 57  1  0
 21 20  1  0
 22 58  1  0
 23  3  1  0
 23  5  1  0
 23 59  1  0
 23 60  1  0
 24  5  1  0
 24 61  1  0
 24 62  1  0
 25  1  1  0
 25  2  2  0
 25 24  1  0
 27 26  1  0
 27 28  2  0
 27 29  1  0
 28  7  1  0
 28 63  1  0
 29 30  1  0
 29 34  2  0
 31  4  1  0
 31 32  3  0
 32  8  1  0
 33 64  1  0
 33 65  1  0
 33 66  1  0
 34 35  1  0
 34 67  1  0
 35 36  1  0
 36 37  1  0
 36 68  1  0
 36 69  1  0
M  END
> <Name>
CHEMBL501440

> <Clean Energy>
140.600998

> <chembl_id>
CHEMBL501440

> <chembl_pref_name>
None

> <efficacy>
0.34

> <Forcefield>
MMFF

> <ForcefieldBase>
MMFF

> <ForcefieldFFML>
<?xml version="1.0" encoding="UTF-8"?>
<!DOCTYPE ffml SYSTEM "Ffml.dtd">
<ffml version="1.0">
<forcefield name="MMFF" derivedFrom="MMFF" base="MMFF">
<atomTypes>
<atomType
name="C100"
element="C"
mass="12.011"
annotation=""/>
<atomType
name="O101"
element="O"
mass="16"
annotation=""/>
<atomType
name="S102"
element="S"
mass="32.066"
annotation=""/>
<atomType
name="F103"
element="F"
mass="18.998"
annotation=""/>
<atomType
name="H104"
element="H"
mass="1.008"
annotation=""/>
</atomTypes>
<parameters>
</parameters>
</forcefield>
</ffml>

> <Initial Potential Energy>
481.20771

> <Initial RMS Gradient>
46.99883

> <Minimization Criteria>
STEEPD> Minimization exiting with gradient tolerance ( 3.0000000) satisfied.

> <CHARMm Energy>
114.30426

> <Potential Energy>
114.30426

> <RMS Gradient>
0.07674

> <Bond Energy>
9.52213

> <Angle Energy>
24.99084

> <STRBend>
0.44577

> <Dihedral Energy>
3.95954

> <OOPLane>
0.17023

> <Van der Waals Energy>
69.51557

> <Electrostatic Energy>
5.70018

> <Hydrogen Bond Energy>
0

> <Solvation Free Energy>
0

> <HasGasteigerCharges>
true

> <REMARK99>
REMARK  99  MacroMolecule created from Mol2 file
REMARK  99  CHEMBL501440
REMARK  99  PROTEIN
REMARK  99  GASTEIGER
REMARK  99
REMARK  99

$$$$
CHEMBL1075724
  SciTegic05292516403D

 73 77  0  0  0  0            999 V2000
    3.7205    4.1445    0.5914 C   0  0
    3.7555    2.7830    0.8821 C   0  0
    4.9817    2.1201    0.9132 C   0  0
    6.1712    2.8082    0.6599 C   0  0
    6.1253    4.1886    0.4253 C   0  0
    4.8990    4.8755    0.4088 C   0  0
    4.8642    6.3537    0.1441 C   0  0
    2.5075    4.7748    0.4939 O   0  0
    1.9707    4.5535   -0.8071 C   0  0
    0.7607    5.4190   -1.1208 C   0  0
    0.3993    5.3362   -2.4340 O   0  0
    0.1265    6.1026   -0.3314 O   0  0
    7.3051    2.0325    0.6704 O   0  0
    8.5063    2.7011    0.2583 C   0  0
    9.6954    1.7685    0.2814 C   0  0
    9.5518    0.0637    0.1066 S   0  0
   11.2652   -0.1078    0.1811 C   0  0
   11.8410    1.1442    0.3527 C   0  0
   10.9411    2.2052    0.3711 N   0  0
   13.2817    1.3732    0.4525 C   0  0
   14.0512    0.7392    1.4408 C   0  0
   15.3164    2.3716   -0.4418 C   0  0
   13.9230    2.2125   -0.4694 C   0  0
   11.8754   -1.4309    0.0139 C   0  0
   11.6028   -2.4766    0.9047 C   0  0
   12.2126   -3.7310    0.7515 C   0  0
   13.1037   -3.9578   -0.2977 C   0  0
   13.3758   -2.9178   -1.1900 C   0  0
   12.7707   -1.6660   -1.0368 C   0  0
   13.7651   -5.1206   -0.5723 O   0  0
   13.6140   -6.2006    0.3336 C   0  0
   14.3459   -7.2505   -0.1024 F   0  0
   14.0444   -5.8610    1.5670 F   0  0
   12.3235   -6.6005    0.4017 F   0  0
   16.0791    1.6970    0.5155 C   0  0
   15.4427    0.9067    1.4796 C   0  0
   17.5617    1.8376    0.5087 C   0  0
   18.3406    0.6862    0.3522 N   0  0
   18.0346    2.9657    0.6421 O   0  0
   17.8227   -0.6319   -0.0274 C   0  0
   18.5683   -1.1880   -1.2404 C   0  0
   20.0812   -1.1552   -1.0379 C   0  0
   20.5453    0.2498   -0.6602 C   0  0
   19.7859    0.7648    0.5576 C   0  0
    2.8375    2.2357    1.0750 H   0  0
    5.0019    1.0551    1.1278 H   0  0
    7.0247    4.7723    0.2552 H   0  0
    4.5712    6.5429   -0.8933 H   0  0
    5.8444    6.8115    0.3140 H   0  0
    4.1566    6.8510    0.8156 H   0  0
    2.7292    4.7782   -1.5690 H   0  0
    1.6470    3.5095   -0.8993 H   0  0
    1.0188    4.7848   -2.9540 H   0  0
    8.3955    3.0820   -0.7645 H   0  0
    8.7272    3.5251    0.9480 H   0  0
   13.5798    0.1021    2.1863 H   0  0
   15.8048    3.0070   -1.1750 H   0  0
   13.3411    2.7331   -1.2274 H   0  0
   10.9155   -2.3243    1.7355 H   0  0
   11.9584   -4.5013    1.4743 H   0  0
   14.0638   -3.0776   -2.0174 H   0  0
   13.0087   -0.8795   -1.7502 H   0  0
   16.0250    0.4112    2.2523 H   0  0
   17.9518   -1.2933    0.8370 H   0  0
   16.7588   -0.5988   -0.2694 H   0  0
   18.2404   -2.2143   -1.4394 H   0  0
   18.3141   -0.5902   -2.1248 H   0  0
   20.3615   -1.8609   -0.2463 H   0  0
   20.5863   -1.4801   -1.9543 H   0  0
   21.6213    0.2442   -0.4546 H   0  0
   20.3785    0.9253   -1.5083 H   0  0
   20.0973    1.7894    0.7837 H   0  0
   20.0199    0.1533    1.4374 H   0  0
  1  2  2  0
  1  8  1  0
  2  3  1  0
  2 45  1  0
  3  4  2  0
  3 46  1  0
  4  5  1  0
  4 13  1  0
  5  6  2  0
  5 47  1  0
  6  1  1  0
  6  7  1  0
  7 48  1  0
  7 49  1  0
  7 50  1  0
  8  9  1  0
  9 10  1  0
  9 51  1  0
  9 52  1  0
 10 11  1  0
 10 12  2  0
 11 53  1  0
 13 14  1  0
 14 15  1  0
 14 54  1  0
 14 55  1  0
 15 16  1  0
 16 17  1  0
 17 18  2  0
 17 24  1  0
 18 19  1  0
 18 20  1  0
 19 15  2  0
 20 21  2  0
 21 36  1  0
 21 56  1  0
 22 23  2  0
 22 57  1  0
 23 20  1  0
 23 58  1  0
 24 25  2  0
 25 26  1  0
 25 59  1  0
 26 27  2  0
 26 60  1  0
 27 28  1  0
 27 30  1  0
 28 29  2  0
 28 61  1  0
 29 24  1  0
 29 62  1  0
 30 31  1  0
 31 32  1  0
 31 33  1  0
 31 34  1  0
 35 22  1  0
 35 36  2  0
 35 37  1  0
 36 63  1  0
 37 38  1  0
 37 39  2  0
 38 40  1  0
 38 44  1  0
 40 41  1  0
 40 64  1  0
 40 65  1  0
 41 42  1  0
 41 66  1  0
 41 67  1  0
 42 43  1  0
 42 68  1  0
 42 69  1  0
 43 44  1  0
 43 70  1  0
 43 71  1  0
 44 72  1  0
 44 73  1  0
M  END
> <Name>
CHEMBL1075724

> <Clean Energy>
68.415604

> <chembl_id>
CHEMBL1075724

> <chembl_pref_name>
None

> <efficacy>
0.26

> <Forcefield>
MMFF

> <ForcefieldBase>
MMFF

> <ForcefieldFFML>
<?xml version="1.0" encoding="UTF-8"?>
<!DOCTYPE ffml SYSTEM "Ffml.dtd">
<ffml version="1.0">
<forcefield name="MMFF" derivedFrom="MMFF" base="MMFF">
<atomTypes>
<atomType
name="C100"
element="C"
mass="12.011"
annotation=""/>
<atomType
name="O101"
element="O"
mass="16"
annotation=""/>
<atomType
name="S102"
element="S"
mass="32.066"
annotation=""/>
<atomType
name="N103"
element="N"
mass="14.007"
annotation=""/>
<atomType
name="F104"
element="F"
mass="18.998"
annotation=""/>
<atomType
name="H105"
element="H"
mass="1.008"
annotation=""/>
</atomTypes>
<parameters>
</parameters>
</forcefield>
</ffml>

> <Initial Potential Energy>
368.71957

> <Initial RMS Gradient>
52.1473

> <Minimization Criteria>
STEEPD> Minimization exiting with gradient tolerance ( 3.0000000) satisfied.

> <CHARMm Energy>
106.60617

> <Potential Energy>
106.60617

> <RMS Gradient>
0.05024

> <Bond Energy>
8.39442

> <Angle Energy>
25.26107

> <STRBend>
0.38034

> <Dihedral Energy>
12.83422

> <OOPLane>
0.09936

> <Van der Waals Energy>
76.81676

> <Electrostatic Energy>
-17.18

> <Hydrogen Bond Energy>
0

> <Solvation Free Energy>
0

> <HasGasteigerCharges>
true

> <REMARK99>
REMARK  99  MacroMolecule created from Mol2 file
REMARK  99  CHEMBL1075724
REMARK  99  PROTEIN
REMARK  99  GASTEIGER
REMARK  99
REMARK  99

$$$$
CHEMBL363805
  SciTegic05292516403D

 56 60  0  0  0  0            999 V2000
    7.5059    0.3452   -1.1323 C   0  0
    7.3854   -1.0146   -0.8785 C   0  0
    8.4296   -1.7299   -0.2925 C   0  0
    8.7034    1.0150   -0.8641 C   0  0
    9.7773    0.3093   -0.2685 C   0  0
    9.6179   -1.0466    0.0311 C   0  0
   10.8263   -1.5012    0.5648 N   0  0
   11.6480   -0.3969    0.8083 C   0  0
   11.0854    0.6829    0.1480 C   0  0
    6.4267    0.9453   -1.7151 O   0  0
    5.9286    2.0622   -0.9841 C   0  0
    5.9752    1.8470    0.3487 F   0  0
    6.6450    3.1698   -1.2801 F   0  0
    4.6406    2.2790   -1.3359 F   0  0
   11.5658    1.9465    0.0240 O   0  0
   12.8794    2.2778    0.2518 C   0  0
   13.9072    1.7656   -0.5514 C   0  0
   15.2442    2.1158   -0.3090 C   0  0
   15.5388    3.0175    0.7188 C   0  0
   14.5076    3.5569    1.4969 C   0  0
   13.1810    3.1932    1.2620 C   0  0
   11.9491    3.8779    2.2577 Cl  0  0
   16.1576    1.5071   -1.1308 O   0  0
   17.5530    1.6959   -0.8769 C   0  0  2  0  0  0
   18.4076    1.3417   -2.1103 C   0  0
   18.0018    0.7806    0.2628 C   0  0
   18.0534    0.6615   -3.0599 O   0  0
   19.6720    1.8510   -2.0450 O   0  0
   11.1593   -2.8702    0.8072 C   0  0
   10.2100   -3.7093    1.2379 N   0  0
   10.8521   -4.9243    1.4200 O   0  0
   12.4072   -3.5123    0.6260 C   0  0
   12.1544   -4.8087    1.0468 C   0  0
   13.0985   -5.8303    1.0638 C   0  0
   14.3693   -5.4953    0.5896 C   0  0
   14.6606   -4.2133    0.1168 C   0  0
   13.6850   -3.2083    0.1205 C   0  0
   15.6018   -6.6962    0.5657 Cl  0  0
   12.8143   -0.4556    1.7399 C   0  0
    6.4629   -1.5369   -1.1275 H   0  0
    8.3009   -2.7923   -0.0993 H   0  0
    8.8341    2.0652   -1.1069 H   0  0
   13.6687    1.0795   -1.3607 H   0  0
   16.5530    3.3324    0.9508 H   0  0
   14.7434    4.2623    2.2897 H   0  0
   17.7596    2.7529   -0.6727 H   0  0
   19.0728    0.8828    0.4652 H   0  0
   17.8036   -0.2685    0.0137 H   0  0
   17.4600    0.9897    1.1896 H   0  0
   19.8534    2.3544   -1.2309 H   0  0
   12.8552   -6.8269    1.4145 H   0  0
   15.6543   -3.9908   -0.2698 H   0  0
   13.9144   -2.2286   -0.2889 H   0  0
   12.8303    0.4289    2.3847 H   0  0
   13.7607   -0.4999    1.1970 H   0  0
   12.7609   -1.3127    2.4179 H   0  0
  1  2  2  0
  1 10  1  0
  2  3  1  0
  2 40  1  0
  3  6  2  0
  3 41  1  0
  4  1  1  0
  4 42  1  0
  5  4  2  0
  5  6  1  0
  6  7  1  0
  7  8  1  0
  7 29  1  0
  8  9  2  0
  8 39  1  0
  9  5  1  0
  9 15  1  0
 10 11  1  0
 11 12  1  0
 11 13  1  0
 11 14  1  0
 15 16  1  0
 16 17  2  0
 17 18  1  0
 17 43  1  0
 18 19  2  0
 18 23  1  0
 19 20  1  0
 19 44  1  0
 20 21  2  0
 20 45  1  0
 21 16  1  0
 21 22  1  0
 23 24  1  0
 24 25  1  0
 24 26  1  0
 24 46  1  0
 25 27  2  0
 25 28  1  0
 26 47  1  0
 26 48  1  0
 26 49  1  0
 28 50  1  0
 29 30  2  0
 30 31  1  0
 31 33  1  0
 32 29  1  0
 32 33  2  0
 33 34  1  0
 34 35  2  0
 34 51  1  0
 35 36  1  0
 35 38  1  0
 36 37  2  0
 36 52  1  0
 37 32  1  0
 37 53  1  0
 39 54  1  0
 39 55  1  0
 39 56  1  0
M  END
> <Name>
CHEMBL363805

> <Clean Energy>
112.959999

> <chembl_id>
CHEMBL363805

> <chembl_pref_name>
None

> <efficacy>
0.31

> <Forcefield>
MMFF

> <ForcefieldBase>
MMFF

> <ForcefieldFFML>
<?xml version="1.0" encoding="UTF-8"?>
<!DOCTYPE ffml SYSTEM "Ffml.dtd">
<ffml version="1.0">
<forcefield name="MMFF" derivedFrom="MMFF" base="MMFF">
<atomTypes>
<atomType
name="C100"
element="C"
mass="12.011"
annotation=""/>
<atomType
name="N101"
element="N"
mass="14.007"
annotation=""/>
<atomType
name="O102"
element="O"
mass="16"
annotation=""/>
<atomType
name="F103"
element="F"
mass="18.998"
annotation=""/>
<atomType
name="Cl104"
element="Cl"
mass="35.453"
annotation=""/>
<atomType
name="H105"
element="H"
mass="1.008"
annotation=""/>
</atomTypes>
<parameters>
</parameters>
</forcefield>
</ffml>

> <Initial Potential Energy>
617.56164

> <Initial RMS Gradient>
225.49903

> <Minimization Criteria>
STEEPD> Minimization exiting with gradient tolerance ( 3.0000000) satisfied.

> <CHARMm Energy>
113.04119

> <Potential Energy>
113.04119

> <RMS Gradient>
0.14522

> <Bond Energy>
7.30076

> <Angle Energy>
24.37172

> <STRBend>
-0.56046

> <Dihedral Energy>
21.02817

> <OOPLane>
0.28811

> <Van der Waals Energy>
62.79897

> <Electrostatic Energy>
-2.18609

> <Hydrogen Bond Energy>
0

> <Solvation Free Energy>
0

> <HasGasteigerCharges>
true

> <REMARK99>
REMARK  99  MacroMolecule created from Mol2 file
REMARK  99  CHEMBL363805
REMARK  99  PROTEIN
REMARK  99  GASTEIGER
REMARK  99
REMARK  99

$$$$
CHEMBL2031859
  SciTegic05292516403D

 55 56  0  0  0  0            999 V2000
   11.5867  -15.0574   -0.1322 C   0  0
   11.8673  -15.8586    0.9885 C   0  0
   12.9630  -16.7239    1.0217 C   0  0
   13.8003  -16.8261   -0.0849 C   0  0
   13.5249  -16.0669   -1.2219 C   0  0
   12.4465  -15.1827   -1.2332 C   0  0
   12.2573  -14.4134   -2.3498 O   0  0
   11.1113  -15.8430    2.1264 O   0  0
   14.9821  -17.6828   -0.1074 C   0  0
   15.9919  -17.5145    0.7593 C   0  0
   17.2674  -18.1971    0.5473 C   0  0
   17.3408  -19.5837    0.3649 C   0  0
   18.5537  -20.1784    0.0233 C   0  0
   19.6924  -19.3839   -0.1300 C   0  0
   19.6431  -18.0101    0.1129 C   0  0
   18.4294  -17.4188    0.4550 C   0  0
   10.4309  -14.0752   -0.1539 C   0  0
    9.0911  -14.7569   -0.2652 C   0  0
    7.9899  -14.5895    0.4964 C   0  0
    6.7434  -15.4081    0.2059 C   0  0
    7.8698  -13.6474    1.6642 C   0  0
    5.6850  -14.6149   -0.5684 C   0  0
    4.5151  -15.4894   -0.9299 C   0  0
    3.2725  -15.4704   -0.4107 C   0  0
    2.2184  -16.4205   -0.9186 C   0  0
    2.7976  -14.5584    0.6878 C   0  0
   20.9060  -19.9725   -0.5797 C   0  0
   21.8949  -20.4495   -0.9574 N   0  0
   13.1528  -17.3134    1.9151 H   0  0
   14.1721  -16.1538   -2.0901 H   0  0
   13.0495  -14.5153   -2.9107 H   0  0
   10.2505  -15.4262    1.9377 H   0  0
   15.0523  -18.3711   -0.9460 H   0  0
   15.9531  -16.7739    1.5537 H   0  0
   16.4510  -20.2025    0.4556 H   0  0
   18.6032  -21.2529   -0.1499 H   0  0
   20.5381  -17.3975    0.0059 H   0  0
   18.3844  -16.3414    0.6021 H   0  0
   10.5110  -13.4426    0.7354 H   0  0
   10.5251  -13.3878   -1.0027 H   0  0
    9.0384  -15.4640   -1.0951 H   0  0
    7.0130  -16.3089   -0.3624 H   0  0
    6.3249  -15.7750    1.1524 H   0  0
    8.7908  -13.1029    1.8802 H   0  0
    7.6045  -14.2046    2.5691 H   0  0
    7.0891  -12.9039    1.4764 H   0  0
    5.3725  -13.7351    0.0014 H   0  0
    6.1171  -14.2290   -1.5010 H   0  0
    4.7342  -16.2097   -1.7186 H   0  0
    1.3477  -15.8633   -1.2799 H   0  0
    1.8946  -17.0908   -0.1156 H   0  0
    2.5804  -17.0412   -1.7451 H   0  0
    2.0263  -13.8812    0.3067 H   0  0
    3.5940  -13.9489    1.1205 H   0  0
    2.3660  -15.1463    1.5048 H   0  0
  1  2  2  0
  1 17  1  0
  2  3  1  0
  2  8  1  0
  3  4  2  0
  3 29  1  0
  4  5  1  0
  4  9  1  0
  5  6  2  0
  5 30  1  0
  6  1  1  0
  6  7  1  0
  7 31  1  0
  8 32  1  0
  9 10  2  0
  9 33  1  0
 10 11  1  0
 10 34  1  0
 11 12  2  0
 12 13  1  0
 12 35  1  0
 13 14  2  0
 13 36  1  0
 14 15  1  0
 14 27  1  0
 15 16  2  0
 15 37  1  0
 16 11  1  0
 16 38  1  0
 17 18  1  0
 17 39  1  0
 17 40  1  0
 18 19  2  0
 18 41  1  0
 19 20  1  0
 19 21  1  0
 20 22  1  0
 20 42  1  0
 20 43  1  0
 21 44  1  0
 21 45  1  0
 21 46  1  0
 22 23  1  0
 22 47  1  0
 22 48  1  0
 23 24  2  0
 23 49  1  0
 24 25  1  0
 24 26  1  0
 25 50  1  0
 25 51  1  0
 25 52  1  0
 26 53  1  0
 26 54  1  0
 26 55  1  0
 27 28  3  0
M  END
> <Name>
CHEMBL2031859

> <Clean Energy>
32.742401

> <chembl_id>
CHEMBL2031859

> <chembl_pref_name>
None

> <efficacy>
0.341666667

> <Forcefield>
MMFF

> <ForcefieldBase>
MMFF

> <ForcefieldFFML>
<?xml version="1.0" encoding="UTF-8"?>
<!DOCTYPE ffml SYSTEM "Ffml.dtd">
<ffml version="1.0">
<forcefield name="MMFF" derivedFrom="MMFF" base="MMFF">
<atomTypes>
<atomType
name="C100"
element="C"
mass="12.011"
annotation=""/>
<atomType
name="O101"
element="O"
mass="16"
annotation=""/>
<atomType
name="N102"
element="N"
mass="14.007"
annotation=""/>
<atomType
name="H103"
element="H"
mass="1.008"
annotation=""/>
</atomTypes>
<parameters>
</parameters>
</forcefield>
</ffml>

> <Initial Potential Energy>
186.17842

> <Initial RMS Gradient>
25.92259

> <Minimization Criteria>
STEEPD> Minimization exiting with gradient tolerance ( 3.0000000) satisfied.

> <CHARMm Energy>
55.35197

> <Potential Energy>
55.35197

> <RMS Gradient>
0.24951

> <Bond Energy>
5.0259

> <Angle Energy>
7.37963

> <STRBend>
0.11389

> <Dihedral Energy>
-1.55051

> <OOPLane>
0.16847

> <Van der Waals Energy>
53.04124

> <Electrostatic Energy>
-8.82665

> <Hydrogen Bond Energy>
0

> <Solvation Free Energy>
0

> <HasGasteigerCharges>
true

> <REMARK99>
REMARK  99  MacroMolecule created from Mol2 file
REMARK  99  CHEMBL2031859
REMARK  99  PROTEIN
REMARK  99  GASTEIGER
REMARK  99
REMARK  99

$$$$
CHEMBL510180
  SciTegic05292516403D

 60 63  0  0  0  0            999 V2000
   -6.9526  -21.5905   -0.3616 C   0  0
   -7.2735  -22.9152   -0.6492 C   0  0
   -6.3637  -23.9262   -0.3486 C   0  0
   -5.7805  -21.1928    0.1911 N   0  0
   -4.9273  -22.2017    0.4766 C   0  0
   -5.1481  -23.5565    0.2481 C   0  0
   -3.9851  -24.2548    0.6781 C   0  0
   -3.1430  -23.3261    1.2848 C   0  0
   -3.6707  -22.0698    1.0319 N   0  0
   -1.8835  -23.5562    2.0503 C   0  0
   -3.0167  -20.7904    1.3095 C   0  0
   -1.7348  -20.6237    0.5139 C   0  0
   -0.4743  -20.6316    1.1441 C   0  0
    0.7168  -20.5413    0.4072 C   0  0
    0.6416  -20.4037   -0.9773 C   0  0
   -0.6034  -20.3691   -1.6147 C   0  0
   -1.7825  -20.4822   -0.8777 C   0  0
   -3.7225  -25.6806    0.5318 C   0  0
   -4.5457  -26.5412    0.8286 O   0  0
   -2.4092  -26.0773   -0.0439 C   0  0
   -1.7815  -27.2352    0.4233 C   0  0
   -0.5280  -27.6017   -0.0772 C   0  0
    0.0940  -26.8178   -1.0518 C   0  0
   -0.5528  -25.6815   -1.5411 C   0  0
   -1.8000  -25.3088   -1.0439 C   0  0
    1.8644  -20.6161    1.1542 O   0  0
    3.1414  -20.4761    0.4993 C   0  0  2  0  0  0
    4.2177  -21.1229    1.3862 C   0  0
    3.4776  -19.0005    0.3218 C   0  0
    3.7048  -21.7793    2.4565 O   0  0
    5.4247  -21.0637    1.1760 O   0  0
    1.3173  -27.0511   -1.6116 O   0  0
    2.0974  -28.0831   -1.0245 C   0  0
   -7.9546  -20.5157   -0.6841 C   0  0
   -8.2314  -23.1669   -1.0963 H   0  0
   -6.6023  -24.9674   -0.5506 H   0  0
   -1.7656  -22.8297    2.8593 H   0  0
   -1.0126  -23.5030    1.3913 H   0  0
   -1.8912  -24.5456    2.5197 H   0  0
   -3.7056  -19.9734    1.0699 H   0  0
   -2.8316  -20.7536    2.3889 H   0  0
   -0.4150  -20.7307    2.2263 H   0  0
    1.5241  -20.3175   -1.6022 H   0  0
   -0.6542  -20.2598   -2.6960 H   0  0
   -2.7408  -20.4665   -1.3958 H   0  0
   -2.2577  -27.8445    1.1880 H   0  0
   -0.0659  -28.5035    0.3126 H   0  0
   -0.0765  -25.0791   -2.3112 H   0  0
   -2.2801  -24.4186   -1.4428 H   0  0
    3.1651  -21.0353   -0.4422 H   0  0
    4.4589  -18.8690   -0.1453 H   0  0
    3.4913  -18.4871    1.2901 H   0  0
    2.7329  -18.4896   -0.2956 H   0  0
    2.7304  -21.6715    2.4694 H   0  0
    3.0718  -28.0901   -1.5228 H   0  0
    1.6364  -29.0634   -1.1842 H   0  0
    2.2706  -27.8959    0.0407 H   0  0
   -7.5772  -19.5320   -0.3866 H   0  0
   -8.8910  -20.6978   -0.1476 H   0  0
   -8.1521  -20.4944   -1.7603 H   0  0
  1  2  2  0
  1 34  1  0
  2  3  1  0
  2 35  1  0
  3  6  2  0
  3 36  1  0
  4  1  1  0
  5  4  2  0
  5  6  1  0
  6  7  1  0
  7  8  2  0
  7 18  1  0
  8  9  1  0
  8 10  1  0
  9  5  1  0
  9 11  1  0
 10 37  1  0
 10 38  1  0
 10 39  1  0
 11 12  1  0
 11 40  1  0
 11 41  1  0
 12 13  2  0
 13 14  1  0
 13 42  1  0
 14 15  2  0
 14 26  1  0
 15 16  1  0
 15 43  1  0
 16 17  2  0
 16 44  1  0
 17 12  1  0
 17 45  1  0
 18 19  2  0
 18 20  1  0
 20 21  2  0
 21 22  1  0
 21 46  1  0
 22 23  2  0
 22 47  1  0
 23 24  1  0
 23 32  1  0
 24 25  2  0
 24 48  1  0
 25 20  1  0
 25 49  1  0
 26 27  1  0
 27 28  1  0
 27 29  1  0
 27 50  1  0
 28 30  1  0
 28 31  2  0
 29 51  1  0
 29 52  1  0
 29 53  1  0
 30 54  1  0
 32 33  1  0
 33 55  1  0
 33 56  1  0
 33 57  1  0
 34 58  1  0
 34 59  1  0
 34 60  1  0
M  END
> <Name>
CHEMBL510180

> <Clean Energy>
89.859703

> <chembl_id>
CHEMBL510180

> <chembl_pref_name>
None

> <efficacy>
0.35

> <Forcefield>
MMFF

> <ForcefieldBase>
MMFF

> <ForcefieldFFML>
<?xml version="1.0" encoding="UTF-8"?>
<!DOCTYPE ffml SYSTEM "Ffml.dtd">
<ffml version="1.0">
<forcefield name="MMFF" derivedFrom="MMFF" base="MMFF">
<atomTypes>
<atomType
name="C100"
element="C"
mass="12.011"
annotation=""/>
<atomType
name="N101"
element="N"
mass="14.007"
annotation=""/>
<atomType
name="O102"
element="O"
mass="16"
annotation=""/>
<atomType
name="H103"
element="H"
mass="1.008"
annotation=""/>
</atomTypes>
<parameters>
</parameters>
</forcefield>
</ffml>

> <Initial Potential Energy>
331.51817

> <Initial RMS Gradient>
39.79662

> <Minimization Criteria>
STEEPD> Minimization exiting with gradient tolerance ( 3.0000000) satisfied.

> <CHARMm Energy>
114.94192

> <Potential Energy>
114.94192

> <RMS Gradient>
0.02606

> <Bond Energy>
6.65722

> <Angle Energy>
18.95412

> <STRBend>
1.06401

> <Dihedral Energy>
8.58312

> <OOPLane>
0.03846

> <Van der Waals Energy>
65.70185

> <Electrostatic Energy>
13.94315

> <Hydrogen Bond Energy>
0

> <Solvation Free Energy>
0

> <HasGasteigerCharges>
true

> <REMARK99>
REMARK  99  MacroMolecule created from Mol2 file
REMARK  99  CHEMBL510180
REMARK  99  PROTEIN
REMARK  99  GASTEIGER
REMARK  99
REMARK  99

$$$$
CHEMBL499038
  SciTegic05292516403D

 69 72  0  0  0  0            999 V2000
    5.6137   -3.1438    0.0556 C   0  0
    6.0018   -4.1014   -0.8782 C   0  0
    7.2306   -3.9751   -1.5321 C   0  0
    8.0685   -2.8905   -1.2567 C   0  0
    7.6918   -1.9214   -0.3157 C   0  0
    6.4650   -2.0761    0.3529 C   0  0
    4.4488   -3.1972    0.7690 O   0  0
    3.2829   -3.5656    0.0155 C   0  0
    2.0265   -2.9400    0.6073 C   0  0
    2.0901   -1.9796    1.6226 C   0  0
    0.9238   -1.3849    2.1117 C   0  0
   -0.3428   -1.7241    1.6054 C   0  0
   -0.4170   -2.7246    0.6271 C   0  0
    0.7595   -3.3045    0.1153 C   0  0
   -1.7336   -0.9211    2.3792 S   0  0
   -2.5335    0.0576    1.1026 C   0  0
   -4.2016    1.6943   -0.4651 C   0  0
   -4.6507    0.4475   -0.0397 C   0  0
   -3.8331   -0.3477    0.7589 C   0  0
   -5.0287    2.5267   -1.1866 O   0  0
   -6.2226    2.8376   -0.4471 C   0  0
   -6.8477    4.1119   -0.9712 C   0  0
   -6.3230    4.5578   -2.1393 O   0  0
   -7.7675    4.6918   -0.4099 O   0  0
   -1.5948   -3.1593    0.0715 O   0  0
   -2.3917   -3.9506    0.9732 C   0  0
   -2.7205   -5.2391    0.3391 C   0  0
   -2.4181    3.4578   -0.7047 C   0  0
   -2.8911    2.1195   -0.1744 C   0  0
   -2.0333    1.2849    0.5995 C   0  0
   -0.6405    1.7617    0.9620 C   0  0
   -0.1297    2.9313    0.1243 C   0  0
   -1.1933    4.0076    0.0163 C   0  0
   -2.9915   -6.2903   -0.1757 C   0  0
   -3.2893   -7.5902   -0.7959 C   0  0
   -4.7611   -7.9405   -0.6606 C   0  0
    8.5852   -0.7427   -0.0081 C   0  0
    9.3005   -0.3097   -1.0878 F   0  0
    9.5143   -1.0168    0.9522 F   0  0
    7.8874    0.3402    0.4376 F   0  0
    5.3725   -4.9596   -1.0936 H   0  0
    7.5380   -4.7253   -2.2575 H   0  0
    9.0182   -2.8039   -1.7821 H   0  0
    6.1566   -1.3466    1.1007 H   0  0
    3.3623   -3.2236   -1.0247 H   0  0
    3.1853   -4.6569    0.0443 H   0  0
    3.0519   -1.6906    2.0483 H   0  0
    1.0046   -0.6267    2.8892 H   0  0
    0.6787   -4.0564   -0.6685 H   0  0
   -5.6424    0.0890   -0.2950 H   0  0
   -4.2385   -1.2803    1.1424 H   0  0
   -6.9540    2.0332   -0.5771 H   0  0
   -5.9930    3.0009    0.6130 H   0  0
   -5.5968    3.9526   -2.4118 H   0  0
   -1.8815   -4.1374    1.9268 H   0  0
   -3.3154   -3.4044    1.1822 H   0  0
   -2.1912    3.3367   -1.7716 H   0  0
   -3.2187    4.2023   -0.6187 H   0  0
   -0.6435    2.0545    2.0192 H   0  0
    0.0769    0.9480    0.8326 H   0  0
    0.7793    3.3401    0.5803 H   0  0
    0.1453    2.5806   -0.8788 H   0  0
   -0.8016    4.8739   -0.5285 H   0  0
   -1.4716    4.3563    1.0187 H   0  0
   -3.0175   -7.5641   -1.8571 H   0  0
   -2.6833   -8.3722   -0.3247 H   0  0
   -4.9664   -8.9068   -1.1319 H   0  0
   -5.3933   -7.1859   -1.1415 H   0  0
   -5.0561   -8.0048    0.3925 H   0  0
  1  2  2  0
  1  7  1  0
  2  3  1  0
  2 41  1  0
  3  4  2  0
  3 42  1  0
  4  5  1  0
  4 43  1  0
  5  6  2  0
  5 37  1  0
  6  1  1  0
  6 44  1  0
  7  8  1  0
  8  9  1  0
  8 45  1  0
  8 46  1  0
  9 10  2  0
 10 11  1  0
 10 47  1  0
 11 12  2  0
 11 48  1  0
 12 13  1  0
 12 15  1  0
 13 14  2  0
 13 25  1  0
 14  9  1  0
 14 49  1  0
 15 16  1  0
 16 30  2  0
 17 18  1  0
 17 20  1  0
 18 19  2  0
 18 50  1  0
 19 16  1  0
 19 51  1  0
 20 21  1  0
 21 22  1  0
 21 52  1  0
 21 53  1  0
 22 23  1  0
 22 24  2  0
 23 54  1  0
 25 26  1  0
 26 27  1  0
 26 55  1  0
 26 56  1  0
 27 34  3  0
 28 29  1  0
 28 33  1  0
 28 57  1  0
 28 58  1  0
 29 17  2  0
 29 30  1  0
 30 31  1  0
 31 32  1  0
 31 59  1  0
 31 60  1  0
 32 33  1  0
 32 61  1  0
 32 62  1  0
 33 63  1  0
 33 64  1  0
 34 35  1  0
 35 36  1  0
 35 65  1  0
 35 66  1  0
 36 67  1  0
 36 68  1  0
 36 69  1  0
 37 38  1  0
 37 39  1  0
 37 40  1  0
M  END
> <Name>
CHEMBL499038

> <Clean Energy>
220.617004

> <chembl_id>
CHEMBL499038

> <chembl_pref_name>
None

> <efficacy>
0.26

> <Forcefield>
MMFF

> <ForcefieldBase>
MMFF

> <ForcefieldFFML>
<?xml version="1.0" encoding="UTF-8"?>
<!DOCTYPE ffml SYSTEM "Ffml.dtd">
<ffml version="1.0">
<forcefield name="MMFF" derivedFrom="MMFF" base="MMFF">
<atomTypes>
<atomType
name="C100"
element="C"
mass="12.011"
annotation=""/>
<atomType
name="O101"
element="O"
mass="16"
annotation=""/>
<atomType
name="S102"
element="S"
mass="32.066"
annotation=""/>
<atomType
name="F103"
element="F"
mass="18.998"
annotation=""/>
<atomType
name="H104"
element="H"
mass="1.008"
annotation=""/>
</atomTypes>
<parameters>
</parameters>
</forcefield>
</ffml>

> <Initial Potential Energy>
643.21691

> <Initial RMS Gradient>
52.1203

> <Minimization Criteria>
STEEPD> Minimization exiting with gradient tolerance ( 3.0000000) satisfied.

> <CHARMm Energy>
106.46428

> <Potential Energy>
106.46428

> <RMS Gradient>
0.08731

> <Bond Energy>
8.79308

> <Angle Energy>
17.80192

> <STRBend>
0.78339

> <Dihedral Energy>
13.04656

> <OOPLane>
0.26156

> <Van der Waals Energy>
70.06941

> <Electrostatic Energy>
-4.29164

> <Hydrogen Bond Energy>
0

> <Solvation Free Energy>
0

> <HasGasteigerCharges>
true

> <REMARK99>
REMARK  99  MacroMolecule created from Mol2 file
REMARK  99  CHEMBL499038
REMARK  99  PROTEIN
REMARK  99  GASTEIGER
REMARK  99
REMARK  99

$$$$
CHEMBL525772
  SciTegic05292516403D

 32 33  0  0  0  0            999 V2000
    0.0127    2.6095   -0.2398 C   0  0
    0.0084    1.6624   -1.2569 C   0  0
    1.1639    0.9431   -1.5534 C   0  0
    2.3406    1.1745   -0.8317 C   0  0
    2.3684    2.1329    0.1854 C   0  0
    1.1877    2.8389    0.4798 C   0  0
    3.4618    2.4191    0.9553 O   0  0
   -1.4316    1.3699   -2.1504 Cl  0  0
    4.7692    2.0208    0.5230 C   0  0  1  0  0  0
    5.7486    3.1252    0.9494 C   0  0
    5.1324    0.7045    1.2252 C   0  0
    6.3352    0.0186    0.6240 C   0  0
    7.5798    0.0836    1.2663 C   0  0
    8.7045   -0.5075    0.6906 C   0  0
    8.5940   -1.1732   -0.5279 C   0  0
    7.3596   -1.2553   -1.1686 C   0  0
    6.2337   -0.6637   -0.5956 C   0  0
    6.9408    3.0855    0.3004 O   0  0
    5.5184    3.9895    1.7834 O   0  0
    1.1418    4.0227    1.7395 Cl  0  0
   -0.8909    3.1662   -0.0052 H   0  0
    1.1541    0.1946   -2.3427 H   0  0
    3.2075    0.5747   -1.0817 H   0  0
    4.8186    1.9699   -0.5713 H   0  0
    5.2988    0.8840    2.2960 H   0  0
    4.2860    0.0062    1.1914 H   0  0
    7.6864    0.6028    2.2181 H   0  0
    9.6668   -0.4517    1.1947 H   0  0
    9.4689   -1.6376   -0.9746 H   0  0
    7.2750   -1.7892   -2.1123 H   0  0
    5.2785   -0.7533   -1.1070 H   0  0
    7.0594    2.3340   -0.3138 H   0  0
  1  2  2  0
  1 21  1  0
  2  3  1  0
  2  8  1  0
  3  4  2  0
  3 22  1  0
  4  5  1  0
  4 23  1  0
  5  6  2  0
  5  7  1  0
  6  1  1  0
  6 20  1  0
  7  9  1  0
  9 10  1  0
  9 11  1  0
  9 24  1  0
 10 18  1  0
 10 19  2  0
 11 12  1  0
 11 25  1  0
 11 26  1  0
 12 13  2  0
 13 14  1  0
 13 27  1  0
 14 15  2  0
 14 28  1  0
 15 16  1  0
 15 29  1  0
 16 17  2  0
 16 30  1  0
 17 12  1  0
 17 31  1  0
 18 32  1  0
M  END
> <Name>
CHEMBL525772

> <Clean Energy>
12.1141

> <chembl_id>
CHEMBL525772

> <chembl_pref_name>
None

> <efficacy>
0.31

> <Forcefield>
MMFF

> <ForcefieldBase>
MMFF

> <ForcefieldFFML>
<?xml version="1.0" encoding="UTF-8"?>
<!DOCTYPE ffml SYSTEM "Ffml.dtd">
<ffml version="1.0">
<forcefield name="MMFF" derivedFrom="MMFF" base="MMFF">
<atomTypes>
<atomType
name="C100"
element="C"
mass="12.011"
annotation=""/>
<atomType
name="O101"
element="O"
mass="16"
annotation=""/>
<atomType
name="Cl102"
element="Cl"
mass="35.453"
annotation=""/>
<atomType
name="H103"
element="H"
mass="1.008"
annotation=""/>
</atomTypes>
<parameters>
</parameters>
</forcefield>
</ffml>

> <Initial Potential Energy>
116.28898

> <Initial RMS Gradient>
31.80451

> <Minimization Criteria>
STEEPD> Minimization exiting with gradient tolerance ( 3.0000000) satisfied.

> <CHARMm Energy>
61.48079

> <Potential Energy>
61.48079

> <RMS Gradient>
0.03576

> <Bond Energy>
3.65648

> <Angle Energy>
10.08679

> <STRBend>
0.37849

> <Dihedral Energy>
-0.54937

> <OOPLane>
0.01699

> <Van der Waals Energy>
37.66233

> <Electrostatic Energy>
10.22908

> <Hydrogen Bond Energy>
0

> <Solvation Free Energy>
0

> <HasGasteigerCharges>
true

> <REMARK99>
REMARK  99  MacroMolecule created from Mol2 file
REMARK  99  CHEMBL525772
REMARK  99  PROTEIN
REMARK  99  GASTEIGER
REMARK  99
REMARK  99

$$$$
CHEMBL572795
  SciTegic05292516403D

 45 47  0  0  0  0            999 V2000
    5.5396  -22.4974    0.0529 C   0  0
    6.6903  -23.0399   -0.5384 C   0  0
    7.9619  -22.5277   -0.2566 C   0  0
    8.1053  -21.4625    0.6245 C   0  0
    6.9600  -20.9156    1.2134 C   0  0
    5.6857  -21.4296    0.9389 C   0  0
    9.2802  -20.8908    1.0192 O   0  0
   10.5206  -21.2722    0.3635 C   0  0  1  0  0  0
   11.3955  -19.9900    0.1912 C   0  0
   11.1886  -22.3682    1.2078 C   0  0
   11.7297  -23.5287    0.3948 C   0  0
   11.0555  -24.7570    0.3627 C   0  0
   11.5616  -25.8254   -0.3810 C   0  0
   12.7486  -25.6779   -1.0970 C   0  0
   13.4252  -24.4594   -1.0746 C   0  0
   12.9169  -23.3899   -0.3347 C   0  0
   12.6387  -20.1139    0.4099 O   0  5
   10.7673  -18.9604   -0.2055 O   0  0
    4.2613  -23.1747   -0.1926 C   0  0
    3.0078  -22.7086   -0.3099 C   0  0
    2.4553  -21.3471   -0.2980 C   0  0
    3.0320  -20.2900   -1.0078 C   0  0
    2.4042  -19.0382   -1.0609 C   0  0
    1.1892  -18.8312   -0.4113 C   0  0
    0.6112  -19.8755    0.3045 C   0  0
    1.2296  -21.1276    0.3503 C   0  0
    6.6146  -23.8810   -1.2236 H   0  0
    8.8159  -22.9941   -0.7336 H   0  0
    7.0698  -20.0810    1.9021 H   0  0
    4.8244  -20.9965    1.4409 H   0  0
   10.3361  -21.5950   -0.6680 H   0  0
   12.0021  -21.9744    1.8295 H   0  0
   10.4687  -22.7703    1.9339 H   0  0
   10.1280  -24.8815    0.9172 H   0  0
   11.0258  -26.7694   -0.4000 H   0  0
   13.1477  -26.5081   -1.6727 H   0  0
   14.3493  -24.3337   -1.6317 H   0  0
   13.4502  -22.4388   -0.3230 H   0  0
    4.3739  -24.2570   -0.2747 H   0  0
    2.2453  -23.4688   -0.4602 H   0  0
    3.9700  -20.4311   -1.5405 H   0  0
    2.8820  -18.2324   -1.6128 H   0  0
    0.6857  -17.8670   -0.4630 H   0  0
   -0.3338  -19.7186    0.8167 H   0  0
    0.7443  -21.9334    0.8963 H   0  0
  1  2  2  0
  1 19  1  0
  2  3  1  0
  2 27  1  0
  3  4  2  0
  3 28  1  0
  4  5  1  0
  4  7  1  0
  5  6  2  0
  5 29  1  0
  6  1  1  0
  6 30  1  0
  7  8  1  0
  8  9  1  0
  8 10  1  0
  8 31  1  0
  9 17  1  0
  9 18  2  0
 10 11  1  0
 10 32  1  0
 10 33  1  0
 11 12  2  0
 12 13  1  0
 12 34  1  0
 13 14  2  0
 13 35  1  0
 14 15  1  0
 14 36  1  0
 15 16  2  0
 15 37  1  0
 16 11  1  0
 16 38  1  0
 19 20  2  0
 19 39  1  0
 20 40  1  0
 21 20  1  0
 21 22  2  0
 22 23  1  0
 22 41  1  0
 23 24  2  0
 23 42  1  0
 24 25  1  0
 24 43  1  0
 25 26  2  0
 25 44  1  0
 26 21  1  0
 26 45  1  0
M  CHG  1  17  -1
M  END
> <Name>
CHEMBL572795

> <Clean Energy>
25.466999

> <chembl_id>
CHEMBL572795

> <chembl_pref_name>
None

> <efficacy>
0.34

> <Forcefield>
MMFF

> <ForcefieldBase>
MMFF

> <ForcefieldFFML>
<?xml version="1.0" encoding="UTF-8"?>
<!DOCTYPE ffml SYSTEM "Ffml.dtd">
<ffml version="1.0">
<forcefield name="MMFF" derivedFrom="MMFF" base="MMFF">
<atomTypes>
<atomType
name="C100"
element="C"
mass="12.011"
annotation=""/>
<atomType
name="O101"
element="O"
mass="16"
annotation=""/>
<atomType
name="H102"
element="H"
mass="1.008"
annotation=""/>
</atomTypes>
<parameters>
</parameters>
</forcefield>
</ffml>

> <Initial Potential Energy>
185.28102

> <Initial RMS Gradient>
34.47486

> <Minimization Criteria>
CONJUG> Minimization exiting with gradient tolerance ( 0.0100000) satisfied.

> <CHARMm Energy>
119.36833

> <Potential Energy>
119.36833

> <RMS Gradient>
0.00982

> <Bond Energy>
6.14421

> <Angle Energy>
18.39924

> <STRBend>
0.39151

> <Dihedral Energy>
7.46666

> <OOPLane>
0.20309

> <Van der Waals Energy>
55.28077

> <Electrostatic Energy>
31.48285

> <Hydrogen Bond Energy>
0

> <Solvation Free Energy>
0

> <HasGasteigerCharges>
true

> <REMARK99>
REMARK  99  MacroMolecule created from Mol2 file
REMARK  99  CHEMBL572795
REMARK  99  PROTEIN
REMARK  99  GASTEIGER
REMARK  99
REMARK  99

$$$$
CHEMBL1956361
  SciTegic05292516403D

 35 36  0  0  0  0            999 V2000
    9.6543   -2.7243    0.5397 C   0  0
    9.6212   -3.7174    1.5151 C   0  0
   10.7969   -4.3687    1.8724 C   0  0
   12.0076   -4.0258    1.2620 C   0  0
   12.0523   -3.0249    0.2874 C   0  0
   10.8647   -2.3709   -0.0856 C   0  0
   13.1763   -2.6082   -0.3659 O   0  0
   14.4572   -3.1797   -0.0677 C   0  0  1  0  0  0
   14.6654   -4.4168   -0.9530 C   0  0
   15.8467   -5.2589   -0.5368 C   0  0
   17.0466   -5.1981   -1.2586 C   0  0
   18.1555   -5.9397   -0.8508 C   0  0
   18.0760   -6.7543    0.2767 C   0  0
   16.8837   -6.8291    0.9949 C   0  0
   15.7730   -6.0865    0.5910 C   0  0
   15.5113   -2.1155   -0.4089 C   0  0
   16.7226   -2.3338    0.1648 O   0  0
   15.3217   -1.1379   -1.1189 O   0  0
   10.8804   -1.2964   -1.1473 C   0  0
   11.3701   -1.7312   -2.3422 F   0  0
    9.6342   -0.8145   -1.4289 F   0  0
   11.6161   -0.2073   -0.7950 F   0  0
    8.7270   -2.2215    0.2649 H   0  0
    8.6790   -3.9803    1.9923 H   0  0
   10.7729   -5.1476    2.6314 H   0  0
   12.8914   -4.5682    1.5760 H   0  0
   14.5523   -3.3744    1.0066 H   0  0
   13.7705   -5.0522   -0.9426 H   0  0
   14.7734   -4.1115   -2.0027 H   0  0
   17.1321   -4.5657   -2.1418 H   0  0
   19.0816   -5.8820   -1.4181 H   0  0
   18.9408   -7.3364    0.5881 H   0  0
   16.8155   -7.4742    1.8673 H   0  0
   14.8491   -6.1722    1.1585 H   0  0
   16.8017   -3.1667    0.6706 H   0  0
  1  2  2  0
  1 23  1  0
  2  3  1  0
  2 24  1  0
  3  4  2  0
  3 25  1  0
  4  5  1  0
  4 26  1  0
  5  6  2  0
  5  7  1  0
  6  1  1  0
  6 19  1  0
  7  8  1  0
  8  9  1  0
  8 16  1  0
  8 27  1  0
  9 10  1  0
  9 28  1  0
  9 29  1  0
 10 11  2  0
 11 12  1  0
 11 30  1  0
 12 13  2  0
 12 31  1  0
 13 14  1  0
 13 32  1  0
 14 15  2  0
 14 33  1  0
 15 10  1  0
 15 34  1  0
 16 17  1  0
 16 18  2  0
 17 35  1  0
 19 20  1  0
 19 21  1  0
 19 22  1  0
M  END
> <Name>
CHEMBL1956361

> <Clean Energy>
25.197201

> <chembl_id>
CHEMBL1956361

> <chembl_pref_name>
None

> <efficacy>
0.12345679

> <Forcefield>
MMFF

> <ForcefieldBase>
MMFF

> <ForcefieldFFML>
<?xml version="1.0" encoding="UTF-8"?>
<!DOCTYPE ffml SYSTEM "Ffml.dtd">
<ffml version="1.0">
<forcefield name="MMFF" derivedFrom="MMFF" base="MMFF">
<atomTypes>
<atomType
name="C100"
element="C"
mass="12.011"
annotation=""/>
<atomType
name="O101"
element="O"
mass="16"
annotation=""/>
<atomType
name="F102"
element="F"
mass="18.998"
annotation=""/>
<atomType
name="H103"
element="H"
mass="1.008"
annotation=""/>
</atomTypes>
<parameters>
</parameters>
</forcefield>
</ffml>

> <Initial Potential Energy>
146.06872

> <Initial RMS Gradient>
31.3547

> <Minimization Criteria>
STEEPD> Minimization exiting with gradient tolerance ( 3.0000000) satisfied.

> <CHARMm Energy>
75.54377

> <Potential Energy>
75.54377

> <RMS Gradient>
0.03218

> <Bond Energy>
4.09784

> <Angle Energy>
10.84756

> <STRBend>
0.17036

> <Dihedral Energy>
-0.82264

> <OOPLane>
0.00797

> <Van der Waals Energy>
38.0282

> <Electrostatic Energy>
23.21448

> <Hydrogen Bond Energy>
0

> <Solvation Free Energy>
0

> <HasGasteigerCharges>
true

> <REMARK99>
REMARK  99  MacroMolecule created from Mol2 file
REMARK  99  CHEMBL1956361
REMARK  99  PROTEIN
REMARK  99  GASTEIGER
REMARK  99
REMARK  99

$$$$
CHEMBL573015
  SciTegic05292516403D

 46 48  0  0  0  0            999 V2000
   18.2554  -11.2280    1.0135 C   0  0
   19.2230  -12.0375    0.4010 C   0  0
   20.5718  -11.6746    0.4166 C   0  0
   20.9607  -10.4872    1.0282 C   0  0
   20.0044   -9.6884    1.6607 C   0  0
   18.6590  -10.0505    1.6505 C   0  0
   22.2263   -9.9899    1.0912 O   0  0
   23.2544  -10.5560    0.2491 C   0  0  1  0  0  0
   24.0640   -9.3496   -0.2391 C   0  0
   24.1169  -11.4798    1.1156 C   0  0
   24.9785  -12.4566    0.3520 C   0  0
   26.2921  -12.1227   -0.0044 C   0  0
   27.0989  -13.0323   -0.6913 C   0  0
   26.6000  -14.2870   -1.0329 C   0  0
   25.2931  -14.6293   -0.6901 C   0  0
   24.4868  -13.7199   -0.0006 C   0  0
   23.5855   -8.1573    0.2066 O   0  0
   25.0502   -9.4089   -0.9582 O   0  0
   16.7989  -11.6031    0.9486 C   0  0
   15.9763  -10.7782   -0.4570 S   0  0
   14.7439  -12.0040   -0.8366 C   0  0
   13.9049  -12.5207    0.1557 C   0  0
   12.9692  -13.5010   -0.1612 C   0  0
   12.8545  -13.9554   -1.4739 C   0  0
   13.6692  -13.4283   -2.4741 C   0  0
   14.6122  -12.4531   -2.1554 C   0  0
   18.9276  -12.9556   -0.1040 H   0  0
   21.2806  -12.3431   -0.0596 H   0  0
   20.3027   -8.7666    2.1555 H   0  0
   17.9264   -9.4015    2.1263 H   0  0
   22.8436  -11.0309   -0.6479 H   0  0
   24.7541  -10.8838    1.7836 H   0  0
   23.4742  -12.0529    1.7979 H   0  0
   26.6965  -11.1435    0.2453 H   0  0
   28.1169  -12.7592   -0.9620 H   0  0
   27.2321  -14.9941   -1.5658 H   0  0
   24.9006  -15.6073   -0.9562 H   0  0
   23.4752  -14.0135    0.2687 H   0  0
   22.7635   -8.3206    0.7234 H   0  0
   16.7165  -12.6927    0.8588 H   0  0
   16.2941  -11.3213    1.8795 H   0  0
   13.9764  -12.1649    1.1798 H   0  0
   12.3144  -13.9023    0.6092 H   0  0
   12.1156  -14.7137   -1.7220 H   0  0
   13.5514  -13.7762   -3.4988 H   0  0
   15.2599  -12.0540   -2.9342 H   0  0
  1  2  2  0
  1 19  1  0
  2  3  1  0
  2 27  1  0
  3  4  2  0
  3 28  1  0
  4  5  1  0
  4  7  1  0
  5  6  2  0
  5 29  1  0
  6  1  1  0
  6 30  1  0
  7  8  1  0
  8  9  1  0
  8 10  1  0
  8 31  1  0
  9 17  1  0
  9 18  2  0
 10 11  1  0
 10 32  1  0
 10 33  1  0
 11 12  2  0
 12 13  1  0
 12 34  1  0
 13 14  2  0
 13 35  1  0
 14 15  1  0
 14 36  1  0
 15 16  2  0
 15 37  1  0
 16 11  1  0
 16 38  1  0
 17 39  1  0
 19 20  1  0
 19 40  1  0
 19 41  1  0
 21 20  1  0
 21 22  2  0
 22 23  1  0
 22 42  1  0
 23 24  2  0
 23 43  1  0
 24 25  1  0
 24 44  1  0
 25 26  2  0
 25 45  1  0
 26 21  1  0
 26 46  1  0
M  END
> <Name>
CHEMBL573015

> <Clean Energy>
10.7845

> <chembl_id>
CHEMBL573015

> <chembl_pref_name>
None

> <efficacy>
0.33

> <Forcefield>
MMFF

> <ForcefieldBase>
MMFF

> <ForcefieldFFML>
<?xml version="1.0" encoding="UTF-8"?>
<!DOCTYPE ffml SYSTEM "Ffml.dtd">
<ffml version="1.0">
<forcefield name="MMFF" derivedFrom="MMFF" base="MMFF">
<atomTypes>
<atomType
name="C100"
element="C"
mass="12.011"
annotation=""/>
<atomType
name="O101"
element="O"
mass="16"
annotation=""/>
<atomType
name="S102"
element="S"
mass="32.066"
annotation=""/>
<atomType
name="H103"
element="H"
mass="1.008"
annotation=""/>
</atomTypes>
<parameters>
</parameters>
</forcefield>
</ffml>

> <Initial Potential Energy>
150.56816

> <Initial RMS Gradient>
30.67537

> <Minimization Criteria>
CONJUG> Minimization exiting with gradient tolerance ( 0.0100000) satisfied.

> <CHARMm Energy>
68.57002

> <Potential Energy>
68.57002

> <RMS Gradient>
0.00709

> <Bond Energy>
5.03187

> <Angle Energy>
10.95458

> <STRBend>
-0.05154

> <Dihedral Energy>
4.33411

> <OOPLane>
0.01318

> <Van der Waals Energy>
55.12838

> <Electrostatic Energy>
-6.84058

> <Hydrogen Bond Energy>
0

> <Solvation Free Energy>
0

> <HasGasteigerCharges>
true

> <REMARK99>
REMARK  99  MacroMolecule created from Mol2 file
REMARK  99  CHEMBL573015
REMARK  99  PROTEIN
REMARK  99  GASTEIGER
REMARK  99
REMARK  99

$$$$
CHEMBL473953
  SciTegic05292516403D

 61 65  0  0  0  0            999 V2000
    6.1752   -6.4157   -0.6425 C   0  0
    7.4567   -6.0547   -1.0564 C   0  0
    8.4922   -6.9846   -1.0079 C   0  0
    8.2451   -8.2786   -0.5425 C   0  0
    6.9618   -8.6589   -0.1203 C   0  0
    5.9299   -7.7103   -0.1788 C   0  0
    6.6855  -10.0062    0.3704 C   0  0
    7.7741  -10.8129    0.5879 O   0  0
    7.2427  -11.9895    1.0337 C   0  0
    5.8740  -11.8411    1.0836 C   0  0
    5.5294  -10.5788    0.6520 N   0  0
    8.1844  -13.0780    1.3461 C   0  0
    4.8291  -12.8055    1.4988 C   0  0
    3.7931  -13.0064    0.4038 C   0  0
    2.8096  -13.9216    0.8909 O   0  0
    1.5968  -13.8420    0.2677 C   0  0
    0.5060  -14.2287    1.0431 C   0  0
   -0.7840  -14.1597    0.5231 C   0  0
   -0.9923  -13.7296   -0.7951 C   0  0
    0.1123  -13.3471   -1.5701 C   0  0
    1.4028  -13.4181   -1.0467 C   0  0
   -2.3836  -13.6343   -1.3776 C   0  0
   -3.2025  -14.8685   -1.1531 C   0  0
   -4.2661  -14.9540   -0.2476 N   0  0
   -4.6572  -16.2466   -0.0742 N   0  0
   -4.0563  -16.9137   -1.0518 C   0  0
   -3.1133  -16.1334   -1.7419 C   0  0
   -2.2886  -16.6256   -2.8295 C   0  0
   -2.7047  -17.4270   -3.6557 O   0  0
   -5.0050  -13.9438    0.4385 C   0  0
   -5.6546  -14.2791    1.6393 C   0  0
   -6.3971  -13.3225    2.3344 C   0  0
   -6.5164  -12.0312    1.8275 C   0  0
   -5.9172  -11.7026    0.6137 C   0  0
   -5.1739  -12.6577   -0.0869 C   0  0
   -1.0112  -16.1717   -2.8525 O   0  0
    5.3748   -5.6808   -0.6751 H   0  0
    7.6450   -5.0477   -1.4170 H   0  0
    9.4913   -6.7061   -1.3315 H   0  0
    9.0649   -8.9929   -0.5143 H   0  0
    4.9261   -7.9804    0.1438 H   0  0
    7.7959  -14.0388    0.9948 H   0  0
    8.3435  -13.1446    2.4265 H   0  0
    9.1541  -12.9123    0.8667 H   0  0
    5.2727  -13.7722    1.7664 H   0  0
    4.3384  -12.4418    2.4100 H   0  0
    3.3396  -12.0376    0.1546 H   0  0
    4.2655  -13.4256   -0.4931 H   0  0
    0.6631  -14.5563    2.0675 H   0  0
   -1.6185  -14.4373    1.1634 H   0  0
   -0.0219  -13.0007   -2.5938 H   0  0
    2.2377  -13.1383   -1.6831 H   0  0
   -2.8096  -12.7315   -0.9442 H   0  0
   -2.3297  -13.4566   -2.4594 H   0  0
   -4.3021  -17.9588   -1.2054 H   0  0
   -5.5865  -15.2855    2.0506 H   0  0
   -6.8984  -13.5909    3.2623 H   0  0
   -7.1047  -11.2904    2.3641 H   0  0
   -6.0471  -10.7054    0.1996 H   0  0
   -4.7982  -12.3802   -1.0662 H   0  0
   -0.7449  -15.7325   -2.0220 H   0  0
  1  2  2  0
  1 37  1  0
  2  3  1  0
  2 38  1  0
  3  4  2  0
  3 39  1  0
  4  5  1  0
  4 40  1  0
  5  6  2  0
  5  7  1  0
  6  1  1  0
  6 41  1  0
  7  8  1  0
  8  9  1  0
  9 10  2  0
  9 12  1  0
 10 11  1  0
 10 13  1  0
 11  7  2  0
 12 42  1  0
 12 43  1  0
 12 44  1  0
 13 14  1  0
 13 45  1  0
 13 46  1  0
 14 15  1  0
 14 47  1  0
 14 48  1  0
 15 16  1  0
 16 17  2  0
 17 18  1  0
 17 49  1  0
 18 19  2  0
 18 50  1  0
 19 20  1  0
 19 22  1  0
 20 21  2  0
 20 51  1  0
 21 16  1  0
 21 52  1  0
 22 23  1  0
 22 53  1  0
 22 54  1  0
 23 24  1  0
 24 25  1  0
 24 30  1  0
 25 26  2  0
 26 27  1  0
 26 55  1  0
 27 23  2  0
 27 28  1  0
 28 29  2  0
 28 36  1  0
 30 31  2  0
 31 32  1  0
 31 56  1  0
 32 33  2  0
 32 57  1  0
 33 34  1  0
 33 58  1  0
 34 35  2  0
 34 59  1  0
 35 30  1  0
 35 60  1  0
 36 61  1  0
M  END
> <Name>
CHEMBL473953

> <Clean Energy>
61.148701

> <chembl_id>
CHEMBL473953

> <chembl_pref_name>
None

> <efficacy>
0.39

> <Forcefield>
MMFF

> <ForcefieldBase>
MMFF

> <ForcefieldFFML>
<?xml version="1.0" encoding="UTF-8"?>
<!DOCTYPE ffml SYSTEM "Ffml.dtd">
<ffml version="1.0">
<forcefield name="MMFF" derivedFrom="MMFF" base="MMFF">
<atomTypes>
<atomType
name="C100"
element="C"
mass="12.011"
annotation=""/>
<atomType
name="O101"
element="O"
mass="16"
annotation=""/>
<atomType
name="N102"
element="N"
mass="14.007"
annotation=""/>
<atomType
name="H103"
element="H"
mass="1.008"
annotation=""/>
</atomTypes>
<parameters>
</parameters>
</forcefield>
</ffml>

> <Initial Potential Energy>
175.39955

> <Initial RMS Gradient>
31.21278

> <Minimization Criteria>
STEEPD> Minimization exiting with gradient tolerance ( 3.0000000) satisfied.

> <CHARMm Energy>
78.64103

> <Potential Energy>
78.64103

> <RMS Gradient>
0.03677

> <Bond Energy>
6.71715

> <Angle Energy>
12.2883

> <STRBend>
0.54011

> <Dihedral Energy>
13.25584

> <OOPLane>
0.10429

> <Van der Waals Energy>
65.32562

> <Electrostatic Energy>
-19.59026

> <Hydrogen Bond Energy>
0

> <Solvation Free Energy>
0

> <HasGasteigerCharges>
true

> <REMARK99>
REMARK  99  MacroMolecule created from Mol2 file
REMARK  99  CHEMBL473953
REMARK  99  PROTEIN
REMARK  99  GASTEIGER
REMARK  99
REMARK  99

$$$$
CHEMBL1160899
  SciTegic05292516403D

 96101  0  0  0  0            999 V2000
   14.1489   -3.1396    1.5416 N   0  0
   13.1550   -3.3209    2.4644 C   0  0
   13.7525   -3.1045    0.2190 C   0  0
   15.4310   -2.8834    1.9939 C   0  0
   12.2627   -3.1189    0.1234 C   0  0
   11.5777   -3.2171    1.6964 S   0  0
   -1.3675   -1.8137   -0.0441 C   0  0
   -1.9772   -2.9757    0.4553 C   0  0
   -4.0300   -1.7140    0.7374 C   0  0
   -2.0838   -0.6068   -0.1883 C   0  0
   -3.3191   -2.9206    0.8833 C   0  0
   16.5501   -3.7099    1.3758 C   0  0
   -3.4206   -0.5409    0.2560 C   0  0
   -0.0540   -1.7709   -0.4319 O   0  0
    3.0342   -1.7032   -0.7855 N   0  0
   11.6317   -3.0381   -1.0585 C   0  0
    0.8199   -2.8351   -0.0179 C   0  0  2  0  0  0
   18.3618   -2.0013    0.9963 C   0  0
   -5.3363   -1.6761    1.1610 O   0  0
   17.9220   -3.2068    1.8304 C   0  0  2  0  0  0
   -1.1852   -4.2516    0.5652 C   0  0
    2.0576   -2.8100   -0.9717 C   0  0
   13.3001   -3.6668    3.6294 O   0  0
   15.6691   -2.0058    2.8258 O   0  0
   14.4940   -3.1318   -0.7556 O   0  0
    4.1990   -1.8224   -1.6857 C   0  0  2  0  0  0
   19.7182   -1.9182    0.9307 O   0  0
   17.6102   -1.2216    0.4325 O   0  0
    5.2340   -2.8806   -1.2892 C   0  0
   10.1809   -3.0320   -1.3240 C   0  0
    0.1094   -4.1820   -0.2260 C   0  0
    6.1477   -3.0019   -2.3881 O   0  0
   -6.2567   -1.8833    0.0755 C   0  0
    7.4531   -3.0266   -1.9894 C   0  0
    2.4297   -0.4014   -1.1279 C   0  0
   18.9256   -4.2319    1.6647 O   0  0
    9.3218   -4.0213   -0.8240 C   0  0
    9.6527   -2.0566   -2.1845 C   0  0
   -1.3792    0.6086   -0.7431 C   0  0
    7.9611   -4.0163   -1.1516 C   0  0
    8.2983   -2.0590   -2.5215 C   0  0
   -4.0082   -4.1370    1.4480 C   0  0
   -4.1895    0.7528    0.2032 C   0  0
   -7.4080   -2.7544    0.5263 C   0  0
    1.2625   -2.6259    1.4407 C   0  0
    3.6281    0.5119   -1.3346 C   0  0
    4.7937   -0.4111   -1.6635 C   0  0
   -7.9728   -3.6837   -0.3604 C   0  0
   -7.9526   -2.6243    1.8116 C   0  0
   -9.0256   -3.4207    2.2092 C   0  0
   -9.0485   -4.4774    0.0370 C   0  0
   -9.5714   -4.3469    1.3222 C   0  0
   16.4080   -4.7476    1.7015 H   0  0
   16.4972   -3.7115    0.2853 H   0  0
   12.2397   -2.9458   -1.9614 H   0  0
   17.9386   -2.9178    2.8858 H   0  0
   -0.9662   -4.4457    1.6217 H   0  0
   -1.7717   -5.0969    0.1860 H   0  0
    2.5978   -3.7516   -0.8169 H   0  0
    1.7067   -2.8120   -2.0132 H   0  0
    3.8579   -2.0199   -2.7130 H   0  0
   20.1062   -2.6808    1.4186 H   0  0
    5.7241   -2.6018   -0.3461 H   0  0
    4.7680   -3.8615   -1.1526 H   0  0
    0.7564   -5.0236    0.0486 H   0  0
   -0.1360   -4.2983   -1.2911 H   0  0
   -6.6543   -0.9103   -0.2351 H   0  0
   -5.7609   -2.3456   -0.7891 H   0  0
    1.8486   -0.4546   -2.0572 H   0  0
    1.7908   -0.0158   -0.3284 H   0  0
   18.7810   -4.6338    0.7856 H   0  0
    9.7017   -4.8206   -0.1928 H   0  0
   10.2886   -1.2851   -2.6111 H   0  0
   -0.8798    1.1514    0.0652 H   0  0
   -2.0761    1.2830   -1.2499 H   0  0
   -0.6382    0.3335   -1.5006 H   0  0
    7.3043   -4.7956   -0.7733 H   0  0
    7.8914   -1.3081   -3.1962 H   0  0
   -3.3199   -4.7533    2.0344 H   0  0
   -4.4247   -4.7398    0.6352 H   0  0
   -4.8158   -3.8652    2.1348 H   0  0
   -3.5632    1.5942    0.5175 H   0  0
   -5.0461    0.7512    0.8844 H   0  0
   -4.5544    0.9307   -0.8131 H   0  0
    1.9708   -3.3996    1.7547 H   0  0
    0.4165   -2.6365    2.1351 H   0  0
    1.7330   -1.6465    1.5777 H   0  0
    3.4454    1.2339   -2.1371 H   0  0
    3.8489    1.0762   -0.4210 H   0  0
    5.2451   -0.1530   -2.6278 H   0  0
    5.5689   -0.3042   -0.8950 H   0  0
   -7.5615   -3.7994   -1.3615 H   0  0
   -7.5231   -1.9092    2.5113 H   0  0
   -9.4381   -3.3179    3.2096 H   0  0
   -9.4844   -5.1962   -0.6528 H   0  0
  -10.4083   -4.9667    1.6330 H   0  0
  2  1  1  0
  3  1  1  0
  4  1  1  0
  5  3  1  0
  6  2  1  0
  6  5  1  0
  7  8  1  0
  7 14  1  0
  8 21  1  0
  9 11  1  0
 10  7  2  0
 11  8  2  0
 12  4  1  0
 12 53  1  0
 12 54  1  0
 13  9  2  0
 13 10  1  0
 14 17  1  0
 15 26  1  0
 16  5  2  0
 16 55  1  0
 17 22  1  0
 18 20  1  0
 19  9  1  0
 20 12  1  0
 20 56  1  0
 21 31  1  0
 21 57  1  0
 21 58  1  0
 22 15  1  0
 22 59  1  0
 22 60  1  0
 23  2  2  0
 24  4  2  0
 25  3  2  0
 26 29  1  0
 26 61  1  0
 27 18  1  0
 27 62  1  0
 28 18  2  0
 29 32  1  0
 29 63  1  0
 29 64  1  0
 30 16  1  0
 31 17  1  0
 31 65  1  0
 31 66  1  0
 32 34  1  0
 33 19  1  0
 33 67  1  0
 33 68  1  0
 34 40  2  0
 34 41  1  0
 35 15  1  0
 35 69  1  0
 35 70  1  0
 36 20  1  0
 36 71  1  0
 37 30  2  0
 37 72  1  0
 38 30  1  0
 38 73  1  0
 39 10  1  0
 39 74  1  0
 39 75  1  0
 39 76  1  0
 40 37  1  0
 40 77  1  0
 41 38  2  0
 41 78  1  0
 42 11  1  0
 42 79  1  0
 42 80  1  0
 42 81  1  0
 43 13  1  0
 43 82  1  0
 43 83  1  0
 43 84  1  0
 44 33  1  0
 45 17  1  0
 45 85  1  0
 45 86  1  0
 45 87  1  0
 46 35  1  0
 46 47  1  0
 46 88  1  0
 46 89  1  0
 47 26  1  0
 47 90  1  0
 47 91  1  0
 48 44  1  0
 48 92  1  0
 49 44  2  0
 49 93  1  0
 50 49  1  0
 50 94  1  0
 51 48  2  0
 51 52  1  0
 51 95  1  0
 52 50  2  0
 52 96  1  0
M  END
> <Name>
CHEMBL1160899

> <Clean Energy>
121.060997

> <chembl_id>
CHEMBL1160899

> <chembl_pref_name>
None

> <efficacy>
0.176687764

> <Forcefield>
MMFF

> <ForcefieldBase>
MMFF

> <ForcefieldFFML>
<?xml version="1.0" encoding="UTF-8"?>
<!DOCTYPE ffml SYSTEM "Ffml.dtd">
<ffml version="1.0">
<forcefield name="MMFF" derivedFrom="MMFF" base="MMFF">
<atomTypes>
<atomType
name="N100"
element="N"
mass="14.007"
annotation=""/>
<atomType
name="C101"
element="C"
mass="12.011"
annotation=""/>
<atomType
name="S102"
element="S"
mass="32.066"
annotation=""/>
<atomType
name="O103"
element="O"
mass="16"
annotation=""/>
<atomType
name="H104"
element="H"
mass="1.008"
annotation=""/>
</atomTypes>
<parameters>
</parameters>
</forcefield>
</ffml>

> <Initial Potential Energy>
347.20785

> <Initial RMS Gradient>
27.46393

> <Minimization Criteria>
STEEPD> Minimization exiting with gradient tolerance ( 3.0000000) satisfied.

> <CHARMm Energy>
63.75878

> <Potential Energy>
63.75878

> <RMS Gradient>
0.02918

> <Bond Energy>
11.2921

> <Angle Energy>
28.58157

> <STRBend>
1.1925

> <Dihedral Energy>
21.87256

> <OOPLane>
0.77451

> <Van der Waals Energy>
99.00575

> <Electrostatic Energy>
-98.96021

> <Hydrogen Bond Energy>
0

> <Solvation Free Energy>
0

> <HasGasteigerCharges>
true

> <REMARK99>
REMARK  99  MacroMolecule created from Mol2 file
REMARK  99  CHEMBL1160899
REMARK  99  PROTEIN
REMARK  99  GASTEIGER
REMARK  99
REMARK  99

$$$$
CHEMBL2331785
  SciTegic05292516403D

 50 52  0  0  0  0            999 V2000
    7.5667   -6.5418    0.2971 C   0  0
    6.2596   -5.9610   -0.0772 C   0  0
    5.3367   -6.6852   -0.8332 C   0  0
    4.1317   -6.0848   -1.2131 C   0  0
    3.8245   -4.7941   -0.7808 C   0  0
    4.7255   -4.0865    0.0162 C   0  0
    5.9406   -4.6723    0.3730 C   0  0
    7.6368   -7.6471    0.8152 O   0  0
    8.6473   -5.7330    0.0166 N   0  0
   10.0046   -6.1601    0.2844 C   0  0
   10.9106   -4.9745    0.5529 C   0  0
    3.7323   -1.5924   -0.3615 S   0  0
    4.4180   -2.8150    0.5772 N   0  0
    1.9832   -1.7735   -0.1650 C   0  0
    1.1129   -1.0844   -1.0108 C   0  0
   -0.2647   -1.2662   -0.8686 C   0  0
   -0.7750   -2.1095    0.1212 C   0  0
    0.0861   -2.7869    0.9952 C   0  0
    1.4707   -2.6077    0.8440 C   0  0
   -0.4351   -3.6846    2.0840 C   0  0
   -2.4903   -2.2742    0.2324 Cl  0  0
    1.6261    0.0362   -2.2223 Cl  0  0
    5.6221   -7.9709   -1.2388 O   0  0
    4.5408   -9.1520    0.5791 C   0  0
    4.7279   -8.9073   -0.7792 C   0  0
    3.9759   -9.6224   -1.7048 C   0  0
    3.0148  -10.5063   -1.2342 C   0  0
    2.8538  -10.6483    0.1386 C   0  0
    3.6025   -9.9995    1.0621 N   0  0
    2.0389  -11.3971   -2.3306 Cl  0  0
    4.0840   -1.8414   -1.7410 O   0  0
    4.0926   -0.3717    0.3242 O   0  0
    3.4206   -6.6167   -1.8400 H   0  0
    2.8716   -4.3712   -1.0812 H   0  0
    6.6416   -4.1396    1.0110 H   0  0
    8.5062   -4.8922   -0.5296 H   0  0
   10.0143   -6.8452    1.1386 H   0  0
   10.3508   -6.7127   -0.5954 H   0  0
   11.9346   -5.3104    0.7435 H   0  0
   10.5660   -4.4097    1.4247 H   0  0
   10.9273   -4.2911   -0.3028 H   0  0
    5.0723   -2.4135    1.2496 H   0  0
   -0.9450   -0.7437   -1.5340 H   0  0
    2.1437   -3.1231    1.5268 H   0  0
    0.3832   -4.1386    2.6539 H   0  0
   -1.0263   -4.5008    1.6565 H   0  0
   -1.0490   -3.1138    2.7880 H   0  0
    5.1459   -8.6548    1.3323 H   0  0
    4.1235   -9.4689   -2.7686 H   0  0
    2.0987  -11.3083    0.5524 H   0  0
  1  2  1  0
  1  8  2  0
  1  9  1  0
  2  3  1  0
  2  7  2  0
  3  4  2  0
  3 23  1  0
  4  5  1  0
  4 33  1  0
  5  6  2  0
  5 34  1  0
  6  7  1  0
  6 13  1  0
  7 35  1  0
  9 10  1  0
  9 36  1  0
 10 11  1  0
 10 37  1  0
 10 38  1  0
 11 39  1  0
 11 40  1  0
 11 41  1  0
 12 13  1  0
 12 14  1  0
 12 31  2  0
 12 32  2  0
 13 42  1  0
 14 15  1  0
 14 19  2  0
 15 16  2  0
 15 22  1  0
 16 17  1  0
 16 43  1  0
 17 18  2  0
 17 21  1  0
 18 19  1  0
 18 20  1  0
 19 44  1  0
 20 45  1  0
 20 46  1  0
 20 47  1  0
 23 25  1  0
 24 25  1  0
 24 29  2  0
 24 48  1  0
 25 26  2  0
 26 27  1  0
 26 49  1  0
 27 28  2  0
 27 30  1  0
 28 29  1  0
 28 50  1  0
M  END
> <Name>
CHEMBL2331785

> <Clean Energy>
31.0042

> <chembl_id>
CHEMBL2331785

> <chembl_pref_name>
None

> <efficacy>
0.18

> <Forcefield>
MMFF

> <ForcefieldBase>
MMFF

> <ForcefieldFFML>
<?xml version="1.0" encoding="UTF-8"?>
<!DOCTYPE ffml SYSTEM "Ffml.dtd">
<ffml version="1.0">
<forcefield name="MMFF" derivedFrom="MMFF" base="MMFF">
<atomTypes>
<atomType
name="C100"
element="C"
mass="12.011"
annotation=""/>
<atomType
name="O101"
element="O"
mass="16"
annotation=""/>
<atomType
name="N102"
element="N"
mass="14.007"
annotation=""/>
<atomType
name="S103"
element="S"
mass="32.066"
annotation=""/>
<atomType
name="Cl104"
element="Cl"
mass="35.453"
annotation=""/>
<atomType
name="H105"
element="H"
mass="1.008"
annotation=""/>
</atomTypes>
<parameters>
</parameters>
</forcefield>
</ffml>

> <Initial Potential Energy>
823.41252

> <Initial RMS Gradient>
452.1024

> <Minimization Criteria>
STEEPD> Minimization exiting with gradient tolerance ( 3.0000000) satisfied.

> <CHARMm Energy>
4.87112

> <Potential Energy>
4.87112

> <RMS Gradient>
0.14713

> <Bond Energy>
4.21851

> <Angle Energy>
12.77479

> <STRBend>
1.05527

> <Dihedral Energy>
12.22626

> <OOPLane>
0.14501

> <Van der Waals Energy>
60.84637

> <Electrostatic Energy>
-86.39509

> <Hydrogen Bond Energy>
0

> <Solvation Free Energy>
0

> <HasGasteigerCharges>
true

> <REMARK99>
REMARK  99  MacroMolecule created from Mol2 file
REMARK  99  CHEMBL2331785
REMARK  99  PROTEIN
REMARK  99  GASTEIGER
REMARK  99
REMARK  99

$$$$
CHEMBL3907308
  SciTegic05292516403D

 49 52  0  0  0  0            999 V2000
   15.9888  -10.8524    0.4119 C   0  0
   17.2027  -11.0568   -0.2756 C   0  0
   18.4255  -10.7149    0.3295 C   0  0
   18.4574  -10.1734    1.6136 C   0  0
   17.2692   -9.9695    2.3047 C   0  0
   16.0512  -10.3040    1.7102 C   0  0
   14.6636  -11.1682   -0.1535 C   0  0
   14.1983  -10.5416   -1.3188 C   0  0
   12.9063  -10.7818   -1.7971 C   0  0
   12.0357  -11.6369   -1.1078 C   0  0
   12.5070  -12.2953    0.0344 C   0  0
   13.8028  -12.0627    0.5032 C   0  0
   17.2489  -11.6187   -1.5972 C   0  0
   17.3443  -12.0478   -2.6722 N   0  0
   10.6137  -11.8266   -1.5816 C   0  0
    9.6333  -11.4157   -0.5722 N   0  0
    9.4066  -10.1113   -0.1546 C   0  0
    8.4436  -10.1721    0.8345 C   0  0
    8.0200  -11.5162    0.9803 C   0  0
    7.0545  -12.1452    1.7943 C   0  0
    6.8722  -13.5277    1.7019 C   0  0
    7.6281  -14.2796    0.8099 C   0  0
    8.5895  -13.6751   -0.0088 C   0  0
    8.7748  -12.2839    0.0900 C   0  0
   10.1478   -8.9226   -0.6990 C   0  0
    9.3968   -7.6004   -0.5209 C   0  0
   10.1574   -6.4420   -1.1488 C   0  0
   19.3620  -10.8740   -0.2023 H   0  0
   19.4061   -9.9124    2.0739 H   0  0
   17.2819   -9.5476    3.3066 H   0  0
   15.1328  -10.1214    2.2680 H   0  0
   14.8296   -9.8353   -1.8558 H   0  0
   12.5768  -10.2657   -2.6967 H   0  0
   11.8585  -12.9724    0.5879 H   0  0
   14.1297  -12.5743    1.4069 H   0  0
   10.4004  -11.2422   -2.4839 H   0  0
   10.4528  -12.8766   -1.8416 H   0  0
    8.0620   -9.3260    1.3884 H   0  0
    6.4502  -11.5630    2.4859 H   0  0
    6.1311  -14.0147    2.3304 H   0  0
    7.4745  -15.3542    0.7448 H   0  0
    9.1625  -14.2839   -0.6999 H   0  0
   11.1199   -8.8548   -0.1960 H   0  0
   10.3368   -9.0633   -1.7691 H   0  0
    8.4019   -7.6664   -0.9780 H   0  0
    9.2490   -7.3870    0.5443 H   0  0
    9.6080   -5.5062   -1.0058 H   0  0
   10.2906   -6.5964   -2.2243 H   0  0
   11.1459   -6.3290   -0.6922 H   0  0
  1  2  1  0
  1  6  2  0
  1  7  1  0
  2  3  2  0
  2 13  1  0
  3  4  1  0
  3 28  1  0
  4  5  2  0
  4 29  1  0
  5  6  1  0
  5 30  1  0
  6 31  1  0
  7  8  1  0
  7 12  2  0
  8  9  2  0
  8 32  1  0
  9 10  1  0
  9 33  1  0
 10 11  2  0
 10 15  1  0
 11 12  1  0
 11 34  1  0
 12 35  1  0
 13 14  3  0
 15 16  1  0
 15 36  1  0
 15 37  1  0
 16 17  1  0
 16 24  1  0
 17 18  2  0
 17 25  1  0
 18 19  1  0
 18 38  1  0
 19 20  1  0
 19 24  2  0
 20 21  2  0
 20 39  1  0
 21 22  1  0
 21 40  1  0
 22 23  2  0
 22 41  1  0
 23 24  1  0
 23 42  1  0
 25 26  1  0
 25 43  1  0
 25 44  1  0
 26 27  1  0
 26 45  1  0
 26 46  1  0
 27 47  1  0
 27 48  1  0
 27 49  1  0
M  END
> <Name>
CHEMBL3907308

> <Clean Energy>
64.359901

> <chembl_id>
CHEMBL3907308

> <chembl_pref_name>
None

> <efficacy>
0.206077873

> <Forcefield>
MMFF

> <ForcefieldBase>
MMFF

> <ForcefieldFFML>
<?xml version="1.0" encoding="UTF-8"?>
<!DOCTYPE ffml SYSTEM "Ffml.dtd">
<ffml version="1.0">
<forcefield name="MMFF" derivedFrom="MMFF" base="MMFF">
<atomTypes>
<atomType
name="C100"
element="C"
mass="12.011"
annotation=""/>
<atomType
name="N101"
element="N"
mass="14.007"
annotation=""/>
<atomType
name="H102"
element="H"
mass="1.008"
annotation=""/>
</atomTypes>
<parameters>
</parameters>
</forcefield>
</ffml>

> <Initial Potential Energy>
259.85869

> <Initial RMS Gradient>
36.52606

> <Minimization Criteria>
STEEPD> Minimization exiting with gradient tolerance ( 3.0000000) satisfied.

> <CHARMm Energy>
91.76301

> <Potential Energy>
91.76301

> <RMS Gradient>
0.01088

> <Bond Energy>
7.28335

> <Angle Energy>
4.21764

> <STRBend>
-0.61122

> <Dihedral Energy>
1.45361

> <OOPLane>
0.03897

> <Van der Waals Energy>
52.36583

> <Electrostatic Energy>
27.01483

> <Hydrogen Bond Energy>
0

> <Solvation Free Energy>
0

> <HasGasteigerCharges>
true

> <REMARK99>
REMARK  99  MacroMolecule created from Mol2 file
REMARK  99  CHEMBL3907308
REMARK  99  PROTEIN
REMARK  99  GASTEIGER
REMARK  99
REMARK  99

$$$$
CHEMBL2322437
  SciTegic05292516403D

 66 72  0  0  0  0            999 V2000
   24.0766   -2.5990   -0.7570 C   0  0
   25.2336   -1.8587   -1.1217 N   0  0
   25.3255   -0.4713   -0.9452 C   0  0
   24.3046    0.2436   -0.4391 C   0  0
   23.0150   -1.7859   -0.2093 C   0  0
   23.1194   -0.4291   -0.0687 C   0  0
   22.0191    0.1379    0.4662 N   0  0
   21.1905   -0.8774    0.6867 C   0  0
   21.7683   -2.0893    0.3001 N   0  0
   19.8114   -0.7297    1.2625 C   0  0
   19.6468    0.5648    2.0476 C   0  0
   21.2773   -3.4475    0.5014 C   0  0  1  0  0  0
   20.2073   -4.9519    2.1393 C   0  0
   21.3096   -3.8966    1.9778 C   0  0
   19.2491   -4.5770    1.0497 C   0  0
   19.8468   -3.7212    0.1148 C   0  0
   19.1566   -3.3399   -1.0242 C   0  0
   17.8450   -3.7992   -1.1974 C   0  0
   17.2257   -4.6518   -0.2539 C   0  0
   17.9494   -5.0386    0.8853 C   0  0
   15.8407   -5.1113   -0.4607 C   0  0
   14.8145   -4.1470   -0.3293 C   0  0
   13.4693   -4.4793   -0.4814 C   0  0
   13.1121   -5.7887   -0.7633 C   0  0
   14.1065   -6.7574   -0.8950 C   0  0
   15.4766   -6.4491   -0.7546 C   0  0
   16.4110   -7.5691   -0.9365 C   0  0
   17.7337   -7.4883   -1.2826 N   0  0
   18.2663   -8.7125   -1.3997 N   0  0
   17.2746   -9.5464   -1.1339 N   0  0
   16.1202   -8.8603   -0.8552 N   0  0
   23.9944   -3.8166   -0.8961 O   0  0
   26.3667   -2.5807   -1.6983 C   0  0
   27.4200   -2.9391   -0.6758 C   0  0
   27.2286   -4.0235    0.1934 C   0  0
   28.2102   -4.3652    1.1250 C   0  0
   29.3916   -3.6283    1.1991 C   0  0
   29.5916   -2.5452    0.3455 C   0  0
   28.6084   -2.1993   -0.5844 C   0  0
   26.2587    0.0080   -1.2329 H   0  0
   24.3745    1.3164   -0.2991 H   0  0
   19.0819   -0.7411    0.4455 H   0  0
   19.5757   -1.5593    1.9337 H   0  0
   18.6382    0.6260    2.4688 H   0  0
   19.7977    1.4412    1.4080 H   0  0
   20.3645    0.6204    2.8732 H   0  0
   21.8808   -4.1353   -0.0953 H   0  0
   20.5990   -5.9588    1.9615 H   0  0
   19.7492   -4.9004    3.1311 H   0  0
   21.1064   -3.0584    2.6563 H   0  0
   22.2926   -4.2879    2.2631 H   0  0
   19.6133   -2.6991   -1.7740 H   0  0
   17.2995   -3.4890   -2.0882 H   0  0
   17.5065   -5.6979    1.6292 H   0  0
   15.0616   -3.1135   -0.0892 H   0  0
   12.7034   -3.7160   -0.3707 H   0  0
   12.0669   -6.0600   -0.8797 H   0  0
   13.8079   -7.7802   -1.1180 H   0  0
   18.3134   -6.6775   -1.4552 H   0  0
   26.0181   -3.5006   -2.1833 H   0  0
   26.8001   -1.9705   -2.5012 H   0  0
   26.3156   -4.6150    0.1423 H   0  0
   28.0568   -5.2111    1.7903 H   0  0
   30.1546   -3.9001    1.9236 H   0  0
   30.5136   -1.9720    0.4031 H   0  0
   28.7799   -1.3512   -1.2427 H   0  0
  1  2  1  0
  1 32  2  0
  2  3  1  0
  2 33  1  0
  3  4  2  0
  3 40  1  0
  4  6  1  0
  4 41  1  0
  5  1  1  0
  5  6  2  0
  6  7  1  0
  7  8  2  0
  8  9  1  0
  8 10  1  0
  9  5  1  0
 10 11  1  0
 10 42  1  0
 10 43  1  0
 11 44  1  0
 11 45  1  0
 11 46  1  0
 12  9  1  0
 12 16  1  0
 12 47  1  0
 13 14  1  0
 13 48  1  0
 13 49  1  0
 14 12  1  0
 14 50  1  0
 14 51  1  0
 15 13  1  0
 15 16  2  0
 16 17  1  0
 17 18  2  0
 17 52  1  0
 18 19  1  0
 18 53  1  0
 19 20  2  0
 19 21  1  0
 20 15  1  0
 20 54  1  0
 21 22  2  0
 22 23  1  0
 22 55  1  0
 23 24  2  0
 23 56  1  0
 24 25  1  0
 24 57  1  0
 25 26  2  0
 25 58  1  0
 26 21  1  0
 26 27  1  0
 27 28  1  0
 28 29  1  0
 28 59  1  0
 29 30  2  0
 30 31  1  0
 31 27  2  0
 33 34  1  0
 33 60  1  0
 33 61  1  0
 34 35  2  0
 35 36  1  0
 35 62  1  0
 36 37  2  0
 36 63  1  0
 37 38  1  0
 37 64  1  0
 38 39  2  0
 38 65  1  0
 39 34  1  0
 39 66  1  0
M  END
> <Name>
CHEMBL2322437

> <Clean Energy>
107.328003

> <chembl_id>
CHEMBL2322437

> <chembl_pref_name>
None

> <efficacy>
0.27173913

> <Forcefield>
MMFF

> <ForcefieldBase>
MMFF

> <ForcefieldFFML>
<?xml version="1.0" encoding="UTF-8"?>
<!DOCTYPE ffml SYSTEM "Ffml.dtd">
<ffml version="1.0">
<forcefield name="MMFF" derivedFrom="MMFF" base="MMFF">
<atomTypes>
<atomType
name="C100"
element="C"
mass="12.011"
annotation=""/>
<atomType
name="N101"
element="N"
mass="14.007"
annotation=""/>
<atomType
name="O102"
element="O"
mass="16"
annotation=""/>
<atomType
name="H103"
element="H"
mass="1.008"
annotation=""/>
</atomTypes>
<parameters>
</parameters>
</forcefield>
</ffml>

> <Initial Potential Energy>
242.51121

> <Initial RMS Gradient>
35.82794

> <Minimization Criteria>
STEEPD> Minimization exiting with gradient tolerance ( 3.0000000) satisfied.

> <CHARMm Energy>
65.94851

> <Potential Energy>
65.94851

> <RMS Gradient>
0.04772

> <Bond Energy>
10.80604

> <Angle Energy>
20.00379

> <STRBend>
-0.73218

> <Dihedral Energy>
5.02239

> <OOPLane>
0.14467

> <Van der Waals Energy>
69.01018

> <Electrostatic Energy>
-38.30638

> <Hydrogen Bond Energy>
0

> <Solvation Free Energy>
0

> <HasGasteigerCharges>
true

> <REMARK99>
REMARK  99  MacroMolecule created from Mol2 file
REMARK  99  CHEMBL2322437
REMARK  99  PROTEIN
REMARK  99  GASTEIGER
REMARK  99
REMARK  99

$$$$
CHEMBL3916286
  SciTegic05292516403D

 51 54  0  0  0  0            999 V2000
   17.9484  -11.4048   -0.4544 C   0  0
   19.1367  -11.8948    0.1269 C   0  0
   20.3882  -11.5064   -0.3779 C   0  0
   20.4731  -10.6570   -1.4793 C   0  0
   19.3104  -10.1854   -2.0789 C   0  0
   18.0629  -10.5524   -1.5698 C   0  0
   16.6078  -11.7187    0.0571 C   0  0
   16.2074  -11.3104    1.3371 C   0  0
   14.9338  -11.6204    1.8207 C   0  0
   14.0259  -12.3379    1.0307 C   0  0
   14.4347  -12.7700   -0.2392 C   0  0
   15.7030  -12.4508   -0.7254 C   0  0
   19.1623  -12.8145    1.2934 C   0  0
   19.9277  -12.6587    2.2308 O   0  0
   18.3325  -13.8743    1.1804 O   0  0
   12.6465  -12.6506    1.5655 C   0  0
   11.5984  -12.4330    0.5667 N   0  0
   11.2240  -11.2010    0.0523 C   0  0
   10.2816  -11.4515   -0.9276 C   0  0
   10.0317  -12.8462   -0.9775 C   0  0
    9.1739  -13.6535   -1.7532 C   0  0
    9.1778  -15.0398   -1.5699 C   0  0
   10.0161  -15.6219   -0.6270 C   0  0
   10.8700  -14.8396    0.1581 C   0  0
   10.8650  -13.4467   -0.0320 C   0  0
   11.8296   -9.8976    0.4938 C   0  0
   10.8851   -8.7045    0.3278 C   0  0
   11.5146   -7.4227    0.8524 C   0  0
   21.2988  -11.8727    0.0921 H   0  0
   21.4437  -10.3619   -1.8669 H   0  0
   19.3671   -9.5214   -2.9379 H   0  0
   17.1682  -10.1471   -2.0416 H   0  0
   16.8875  -10.7429    1.9722 H   0  0
   14.6557  -11.2860    2.8185 H   0  0
   13.7585  -13.3402   -0.8752 H   0  0
   15.9779  -12.7818   -1.7256 H   0  0
   17.8073  -13.8984    0.3589 H   0  0
   12.6177  -13.6889    1.9065 H   0  0
   12.3908  -12.0219    2.4259 H   0  0
    9.8161  -10.7002   -1.5491 H   0  0
    8.5142  -13.2046   -2.4906 H   0  0
    8.5205  -15.6640   -2.1703 H   0  0
   10.0270  -16.7004   -0.4969 H   0  0
   11.5117  -15.3189    0.8897 H   0  0
   12.1195   -9.9564    1.5486 H   0  0
   12.7439   -9.7225   -0.0865 H   0  0
   10.6303   -8.5639   -0.7292 H   0  0
    9.9461   -8.8892    0.8636 H   0  0
   10.8274   -6.5812    0.7198 H   0  0
   12.4409   -7.1931    0.3160 H   0  0
   11.7464   -7.5069    1.9189 H   0  0
  1  2  1  0
  1  6  2  0
  1  7  1  0
  2  3  2  0
  2 13  1  0
  3  4  1  0
  3 29  1  0
  4  5  2  0
  4 30  1  0
  5  6  1  0
  5 31  1  0
  6 32  1  0
  7  8  1  0
  7 12  2  0
  8  9  2  0
  8 33  1  0
  9 10  1  0
  9 34  1  0
 10 11  2  0
 10 16  1  0
 11 12  1  0
 11 35  1  0
 12 36  1  0
 13 14  2  0
 13 15  1  0
 15 37  1  0
 16 17  1  0
 16 38  1  0
 16 39  1  0
 17 18  1  0
 17 25  1  0
 18 19  2  0
 18 26  1  0
 19 20  1  0
 19 40  1  0
 20 21  1  0
 20 25  2  0
 21 22  2  0
 21 41  1  0
 22 23  1  0
 22 42  1  0
 23 24  2  0
 23 43  1  0
 24 25  1  0
 24 44  1  0
 26 27  1  0
 26 45  1  0
 26 46  1  0
 27 28  1  0
 27 47  1  0
 27 48  1  0
 28 49  1  0
 28 50  1  0
 28 51  1  0
M  END
> <Name>
CHEMBL3916286

> <Clean Energy>
46.506401

> <chembl_id>
CHEMBL3916286

> <chembl_pref_name>
None

> <efficacy>
0.379867047

> <Forcefield>
MMFF

> <ForcefieldBase>
MMFF

> <ForcefieldFFML>
<?xml version="1.0" encoding="UTF-8"?>
<!DOCTYPE ffml SYSTEM "Ffml.dtd">
<ffml version="1.0">
<forcefield name="MMFF" derivedFrom="MMFF" base="MMFF">
<atomTypes>
<atomType
name="C100"
element="C"
mass="12.011"
annotation=""/>
<atomType
name="O101"
element="O"
mass="16"
annotation=""/>
<atomType
name="N102"
element="N"
mass="14.007"
annotation=""/>
<atomType
name="H103"
element="H"
mass="1.008"
annotation=""/>
</atomTypes>
<parameters>
</parameters>
</forcefield>
</ffml>

> <Initial Potential Energy>
257.94957

> <Initial RMS Gradient>
39.50508

> <Minimization Criteria>
STEEPD> Minimization exiting with gradient tolerance ( 3.0000000) satisfied.

> <CHARMm Energy>
83.23559

> <Potential Energy>
83.23559

> <RMS Gradient>
0.04504

> <Bond Energy>
7.05333

> <Angle Energy>
7.44661

> <STRBend>
-0.19693

> <Dihedral Energy>
5.63027

> <OOPLane>
0.14338

> <Van der Waals Energy>
56.13595

> <Electrostatic Energy>
7.02299

> <Hydrogen Bond Energy>
0

> <Solvation Free Energy>
0

> <HasGasteigerCharges>
true

> <REMARK99>
REMARK  99  MacroMolecule created from Mol2 file
REMARK  99  CHEMBL3916286
REMARK  99  PROTEIN
REMARK  99  GASTEIGER
REMARK  99
REMARK  99

$$$$
CHEMBL2322449
  SciTegic05292516403D

 69 75  0  0  0  0            999 V2000
   33.2562   -1.4017    0.4153 C   0  0
   33.9844   -2.0858    1.3883 C   0  0
   34.1209   -3.4712    1.3205 C   0  0
   33.5081   -4.1909    0.2899 C   0  0
   32.7711   -3.4984   -0.6816 C   0  0
   32.6409   -2.1000   -0.6314 C   0  0
   29.5214   -1.6027   -0.8844 C   0  0
   30.6330   -0.7549   -1.1416 N   0  0
   30.6131    0.6206   -0.8737 C   0  0
   29.5345    1.2156   -0.3328 C   0  0
   28.4147   -0.9234   -0.2537 C   0  0
   28.4127    0.4220   -0.0069 C   0  0
   27.2876    0.8504    0.5993 N   0  0
   26.5567   -0.2473    0.7646 C   0  0
   27.2222   -1.3727    0.2732 N   0  0
   25.1924   -0.2609    1.3887 C   0  0
   24.9686    0.9296    2.3121 C   0  0
   26.8723   -2.7814    0.4069 C   0  0  1  0  0  0
   26.0171   -4.4861    1.9686 C   0  0
   26.9981   -3.3125    1.8509 C   0  0
   24.9842   -4.1352    0.9405 C   0  0
   25.4623   -3.1675    0.0463 C   0  0
   24.6986   -2.7751   -1.0397 C   0  0
   23.4248   -3.3328   -1.1934 C   0  0
   22.9216   -4.2937   -0.2858 C   0  0
   23.7252   -4.6983    0.7919 C   0  0
   21.5611   -4.8285   -0.4539 C   0  0
   20.4900   -3.9626   -0.1274 C   0  0
   19.1602   -4.3642   -0.2344 C   0  0
   18.8656   -5.6467   -0.6672 C   0  0
   19.9053   -6.5181   -0.9906 C   0  0
   21.2619   -6.1388   -0.8984 C   0  0
   22.2430   -7.1621   -1.2905 C   0  0
   23.5524   -6.9668   -1.6433 N   0  0
   24.1178   -8.1259   -2.0111 N   0  0
   23.1699   -9.0355   -1.8651 N   0  0
   22.0060   -8.4599   -1.4284 N   0  0
   29.5124   -2.7962   -1.1731 O   0  0
   31.8408   -1.3685   -1.6876 C   0  0
   33.6972   -5.6761    0.1899 C   0  0
   33.1815   -0.3185    0.4835 H   0  0
   34.4540   -1.5346    2.1987 H   0  0
   34.7118   -3.9849    2.0759 H   0  0
   32.2858   -4.0563   -1.4820 H   0  0
   31.5062    1.1931   -1.1157 H   0  0
   29.5163    2.2786   -0.1192 H   0  0
   24.4393   -0.2379    0.5937 H   0  0
   25.0332   -1.1701    1.9728 H   0  0
   23.9729    0.8760    2.7636 H   0  0
   25.0396    1.8765    1.7663 H   0  0
   25.7083    0.9482    3.1198 H   0  0
   27.5172   -3.3730   -0.2465 H   0  0
   26.5015   -5.4313    1.7026 H   0  0
   25.5954   -4.5544    2.9753 H   0  0
   26.7288   -2.5441    2.5867 H   0  0
   28.0248   -3.6147    2.0864 H   0  0
   25.0659   -2.0468   -1.7582 H   0  0
   22.8123   -3.0095   -2.0345 H   0  0
   23.3682   -5.4387    1.5052 H   0  0
   20.6931   -2.9532    0.2294 H   0  0
   18.3584   -3.6776    0.0250 H   0  0
   17.8336   -5.9727   -0.7537 H   0  0
   19.6508   -7.5204   -1.3312 H   0  0
   24.0989   -6.1167   -1.6801 H   0  0
   31.5449   -2.0614   -2.4852 H   0  0
   32.4721   -0.6059   -2.1609 H   0  0
   34.6015   -5.8982   -0.3851 H   0  0
   32.8404   -6.1485   -0.3022 H   0  0
   33.7894   -6.1259    1.1839 H   0  0
  1  2  2  0
  1 41  1  0
  2  3  1  0
  2 42  1  0
  3  4  2  0
  3 43  1  0
  4  5  1  0
  4 40  1  0
  5  6  2  0
  5 44  1  0
  6  1  1  0
  7  8  1  0
  7 38  2  0
  8  9  1  0
  8 39  1  0
  9 10  2  0
  9 45  1  0
 10 12  1  0
 10 46  1  0
 11  7  1  0
 11 12  2  0
 12 13  1  0
 13 14  2  0
 14 15  1  0
 14 16  1  0
 15 11  1  0
 16 17  1  0
 16 47  1  0
 16 48  1  0
 17 49  1  0
 17 50  1  0
 17 51  1  0
 18 15  1  0
 18 22  1  0
 18 52  1  0
 19 20  1  0
 19 53  1  0
 19 54  1  0
 20 18  1  0
 20 55  1  0
 20 56  1  0
 21 19  1  0
 21 22  2  0
 22 23  1  0
 23 24  2  0
 23 57  1  0
 24 25  1  0
 24 58  1  0
 25 26  2  0
 25 27  1  0
 26 21  1  0
 26 59  1  0
 27 28  2  0
 28 29  1  0
 28 60  1  0
 29 30  2  0
 29 61  1  0
 30 31  1  0
 30 62  1  0
 31 32  2  0
 31 63  1  0
 32 27  1  0
 32 33  1  0
 33 34  1  0
 34 35  1  0
 34 64  1  0
 35 36  2  0
 36 37  1  0
 37 33  2  0
 39  6  1  0
 39 65  1  0
 39 66  1  0
 40 67  1  0
 40 68  1  0
 40 69  1  0
M  END
> <Name>
CHEMBL2322449

> <Clean Energy>
107.421997

> <chembl_id>
CHEMBL2322449

> <chembl_pref_name>
None

> <efficacy>
0.22826087

> <Forcefield>
MMFF

> <ForcefieldBase>
MMFF

> <ForcefieldFFML>
<?xml version="1.0" encoding="UTF-8"?>
<!DOCTYPE ffml SYSTEM "Ffml.dtd">
<ffml version="1.0">
<forcefield name="MMFF" derivedFrom="MMFF" base="MMFF">
<atomTypes>
<atomType
name="C100"
element="C"
mass="12.011"
annotation=""/>
<atomType
name="N101"
element="N"
mass="14.007"
annotation=""/>
<atomType
name="O102"
element="O"
mass="16"
annotation=""/>
<atomType
name="H103"
element="H"
mass="1.008"
annotation=""/>
</atomTypes>
<parameters>
</parameters>
</forcefield>
</ffml>

> <Initial Potential Energy>
247.14177

> <Initial RMS Gradient>
35.40937

> <Minimization Criteria>
STEEPD> Minimization exiting with gradient tolerance ( 3.0000000) satisfied.

> <CHARMm Energy>
67.68514

> <Potential Energy>
67.68514

> <RMS Gradient>
0.09687

> <Bond Energy>
10.89237

> <Angle Energy>
20.42632

> <STRBend>
-0.78927

> <Dihedral Energy>
5.50085

> <OOPLane>
0.18371

> <Van der Waals Energy>
71.49277

> <Electrostatic Energy>
-40.02161

> <Hydrogen Bond Energy>
0

> <Solvation Free Energy>
0

> <HasGasteigerCharges>
true

> <REMARK99>
REMARK  99  MacroMolecule created from Mol2 file
REMARK  99  CHEMBL2322449
REMARK  99  PROTEIN
REMARK  99  GASTEIGER
REMARK  99
REMARK  99

$$$$
CHEMBL3397550
  SciTegic05292516403D

 38 39  0  0  0  0            999 V2000
    1.6368   -3.4058    1.6092 C   0  0
    2.0604   -3.2593    0.1225 C   0  0  1  0  0  0
    2.4510   -1.7942   -0.1445 C   0  0
    2.4499   -2.9841    2.4825 O   0  0
    0.4926   -3.9258    1.7847 O   0  5
    1.3020   -0.8297   -0.3471 C   0  0
    0.5919   -0.3324    0.7539 C   0  0
   -0.4453    0.5832    0.5739 C   0  0
   -0.7826    1.0098   -0.7091 C   0  0
   -0.0870    0.5219   -1.8139 C   0  0
    0.9478   -0.3982   -1.6339 C   0  0
    3.2562   -4.0350   -0.1579 O   0  0
    3.1982   -5.3973   -0.1887 C   0  0
    4.4394   -6.0091   -0.3927 C   0  0
    4.5572   -7.3995   -0.4359 C   0  0
    3.4219   -8.1959   -0.2731 C   0  0
    2.1758   -7.5967   -0.0773 C   0  0
    2.0661   -6.1966   -0.0390 C   0  0
    3.5923   -9.6618   -0.3035 C   0  0
    2.6175  -10.5034   -0.1525 N   0  0
    3.1276  -11.8088   -0.2289 O   0  0
    2.0615  -12.7170    0.0191 C   0  0
    1.2608   -3.5589   -0.5663 H   0  0
    3.1033   -1.4019    0.6472 H   0  0
    3.0870   -1.7610   -1.0409 H   0  0
    0.8446   -0.6723    1.7589 H   0  0
   -0.9901    0.9574    1.4367 H   0  0
   -1.5911    1.7214   -0.8463 H   0  0
   -0.3537    0.8584   -2.8121 H   0  0
    1.4811   -0.7847   -2.4990 H   0  0
    5.3238   -5.3859   -0.5005 H   0  0
    5.5379   -7.8415   -0.5822 H   0  0
    1.2855   -8.2041    0.0637 H   0  0
    1.0855   -5.7613    0.1349 H   0  0
    4.6219  -10.0300   -0.4631 H   0  0
    2.4540  -13.7355   -0.0404 H   0  0
    1.2773  -12.5968   -0.7348 H   0  0
    1.6509  -12.5554    1.0205 H   0  0
  1  2  1  0
  1  4  2  0
  1  5  1  0
  2  3  1  0
  2 12  1  0
  2 23  1  0
  3  6  1  0
  3 24  1  0
  3 25  1  0
  6  7  1  0
  6 11  2  0
  7  8  2  0
  7 26  1  0
  8  9  1  0
  8 27  1  0
  9 10  2  0
  9 28  1  0
 10 11  1  0
 10 29  1  0
 11 30  1  0
 12 13  1  0
 13 14  1  0
 13 18  2  0
 14 15  2  0
 14 31  1  0
 15 16  1  0
 15 32  1  0
 16 17  2  0
 16 19  1  0
 17 18  1  0
 17 33  1  0
 18 34  1  0
 19 20  2  0
 19 35  1  0
 20 21  1  0
 21 22  1  0
 22 36  1  0
 22 37  1  0
 22 38  1  0
M  CHG  1   5  -1
M  END
> <Name>
CHEMBL3397550

> <Clean Energy>
12.7235

> <chembl_id>
CHEMBL3397550

> <chembl_pref_name>
None

> <efficacy>
0.3

> <Forcefield>
MMFF

> <ForcefieldBase>
MMFF

> <ForcefieldFFML>
<?xml version="1.0" encoding="UTF-8"?>
<!DOCTYPE ffml SYSTEM "Ffml.dtd">
<ffml version="1.0">
<forcefield name="MMFF" derivedFrom="MMFF" base="MMFF">
<atomTypes>
<atomType
name="C100"
element="C"
mass="12.011"
annotation=""/>
<atomType
name="O101"
element="O"
mass="16"
annotation=""/>
<atomType
name="N102"
element="N"
mass="14.007"
annotation=""/>
<atomType
name="H103"
element="H"
mass="1.008"
annotation=""/>
</atomTypes>
<parameters>
</parameters>
</forcefield>
</ffml>

> <Initial Potential Energy>
172.67275

> <Initial RMS Gradient>
33.59418

> <Minimization Criteria>
CONJUG> Minimization exiting with gradient tolerance ( 0.0100000) satisfied.

> <CHARMm Energy>
110.51873

> <Potential Energy>
110.51873

> <RMS Gradient>
0.00924

> <Bond Energy>
4.36604

> <Angle Energy>
14.0452

> <STRBend>
0.70418

> <Dihedral Energy>
3.26379

> <OOPLane>
0.01716

> <Van der Waals Energy>
40.86011

> <Electrostatic Energy>
47.26224

> <Hydrogen Bond Energy>
0

> <Solvation Free Energy>
0

> <HasGasteigerCharges>
true

> <REMARK99>
REMARK  99  MacroMolecule created from Mol2 file
REMARK  99  CHEMBL3397550
REMARK  99  PROTEIN
REMARK  99  GASTEIGER
REMARK  99
REMARK  99

$$$$
CHEMBL2312707
  SciTegic05292516403D

 45 47  0  0  0  0            999 V2000
    5.7059   -4.1746   -0.0657 C   0  0
    5.3113   -4.3205    1.2622 C   0  0
    6.2121   -4.0475    2.2884 C   0  0
    7.5101   -3.6265    1.9847 C   0  0
    7.9307   -3.4719    0.6523 C   0  0
    7.0063   -3.7562   -0.3671 C   0  0
    9.2965   -3.0167    0.3384 C   0  0
    9.7884   -1.8060    0.8536 C   0  0
   11.0881   -1.3546    0.5645 C   0  0
   11.9273   -2.1473   -0.2313 C   0  0
   11.4464   -3.3395   -0.7739 C   0  0
   10.1449   -3.7698   -0.4863 C   0  0
   13.1808   -1.6574   -0.4936 O   0  0
   14.2644   -2.5863   -0.3499 C   0  0  2  0  0  0
   14.4533   -3.0943    1.0906 C   0  0
   15.1174   -4.2749    1.1725 O   0  0
   14.0625   -2.5196    2.0971 O   0  0
   15.5331   -1.8269   -0.7800 C   0  0
   16.6842   -2.7395   -1.1328 C   0  0
   17.7406   -2.9319   -0.2324 C   0  0
   18.7757   -3.8137   -0.5407 C   0  0
   18.7649   -4.5063   -1.7499 C   0  0
   17.7256   -4.3140   -2.6573 C   0  0
   16.6879   -3.4345   -2.3506 C   0  0
   11.5742   -0.0567    1.1464 C   0  0
    4.9992   -4.3818   -0.8656 H   0  0
    4.2993   -4.6443    1.4978 H   0  0
    5.9055   -4.1621    3.3252 H   0  0
    8.2067   -3.4275    2.7976 H   0  0
    7.2958   -3.6375   -1.4094 H   0  0
    9.1413   -1.1964    1.4840 H   0  0
   12.0497   -3.9435   -1.4423 H   0  0
    9.7955   -4.7099   -0.9091 H   0  0
   14.0997   -3.4423   -1.0134 H   0  0
   15.5113   -4.5930    0.3347 H   0  0
   15.3140   -1.1982   -1.6539 H   0  0
   15.8372   -1.1211    0.0047 H   0  0
   17.7591   -2.4038    0.7201 H   0  0
   19.5964   -3.9584    0.1590 H   0  0
   19.5761   -5.1892   -1.9902 H   0  0
   17.7308   -4.8459   -3.6061 H   0  0
   15.8818   -3.2922   -3.0687 H   0  0
   11.9934    0.5821    0.3622 H   0  0
   12.3375   -0.2458    1.9072 H   0  0
   10.7582    0.5015    1.6174 H   0  0
  1  2  2  0
  1 26  1  0
  2  3  1  0
  2 27  1  0
  3  4  2  0
  3 28  1  0
  4  5  1  0
  4 29  1  0
  5  6  2  0
  5  7  1  0
  6  1  1  0
  6 30  1  0
  7  8  2  0
  8  9  1  0
  8 31  1  0
  9 10  2  0
  9 25  1  0
 10 11  1  0
 10 13  1  0
 11 12  2  0
 11 32  1  0
 12  7  1  0
 12 33  1  0
 13 14  1  0
 14 15  1  0
 14 18  1  0
 14 34  1  0
 15 16  1  0
 15 17  2  0
 16 35  1  0
 18 19  1  0
 18 36  1  0
 18 37  1  0
 19 20  2  0
 20 21  1  0
 20 38  1  0
 21 22  2  0
 21 39  1  0
 22 23  1  0
 22 40  1  0
 23 24  2  0
 23 41  1  0
 24 19  1  0
 24 42  1  0
 25 43  1  0
 25 44  1  0
 25 45  1  0
M  END
> <Name>
CHEMBL2312707

> <Clean Energy>
35.087502

> <chembl_id>
CHEMBL2312707

> <chembl_pref_name>
None

> <efficacy>
0.34

> <Forcefield>
MMFF

> <ForcefieldBase>
MMFF

> <ForcefieldFFML>
<?xml version="1.0" encoding="UTF-8"?>
<!DOCTYPE ffml SYSTEM "Ffml.dtd">
<ffml version="1.0">
<forcefield name="MMFF" derivedFrom="MMFF" base="MMFF">
<atomTypes>
<atomType
name="C100"
element="C"
mass="12.011"
annotation=""/>
<atomType
name="O101"
element="O"
mass="16"
annotation=""/>
<atomType
name="H102"
element="H"
mass="1.008"
annotation=""/>
</atomTypes>
<parameters>
</parameters>
</forcefield>
</ffml>

> <Initial Potential Energy>
186.22756

> <Initial RMS Gradient>
32.5351

> <Minimization Criteria>
CONJUG> Minimization exiting with gradient tolerance ( 0.0100000) satisfied.

> <CHARMm Energy>
78.34091

> <Potential Energy>
78.34091

> <RMS Gradient>
0.00951

> <Bond Energy>
6.37666

> <Angle Energy>
8.00092

> <STRBend>
-0.10338

> <Dihedral Energy>
9.32135

> <OOPLane>
0.04876

> <Van der Waals Energy>
53.93137

> <Electrostatic Energy>
0.76523

> <Hydrogen Bond Energy>
0

> <Solvation Free Energy>
0

> <HasGasteigerCharges>
true

> <REMARK99>
REMARK  99  MacroMolecule created from Mol2 file
REMARK  99  CHEMBL2312707
REMARK  99  PROTEIN
REMARK  99  GASTEIGER
REMARK  99
REMARK  99

$$$$
CHEMBL364254
  SciTegic05292516403D

 34 35  0  0  0  0            999 V2000
    7.9121   -1.4322    0.0666 C   0  0
    5.8742   -2.2272    0.9780 O   0  0
    7.1234   -2.6988    0.4214 C   0  0  2  0  0  0
    4.7441   -2.8606    0.5378 C   0  0
    2.3850   -2.5910   -0.0070 C   0  0
    3.6062   -2.0577    0.4345 C   0  0
    8.9694   -1.4224   -0.5460 O   0  0
    2.3085   -3.9644   -0.3302 C   0  0
    3.4516   -4.7659   -0.1923 C   0  0
    7.3310   -0.2894    0.5130 O   0  0
    4.6608   -4.2191    0.2452 C   0  0
    7.8631   -3.5112    1.4928 C   0  0
    1.2399   -1.7888   -0.1377 C   0  0
    1.0906   -4.4979   -0.7786 C   0  0
    8.6201   -4.7297    0.9534 C   0  0
    9.7550   -4.3968    0.0009 C   0  0
    0.0366   -2.3338   -0.5867 C   0  0
   -0.0367   -3.6858   -0.9081 C   0  0
    6.9640   -3.2425   -0.5176 H   0  0
    3.6742   -1.0025    0.6879 H   0  0
    3.4071   -5.8286   -0.4219 H   0  0
    6.4864   -0.5138    0.9625 H   0  0
    5.5119   -4.8814    0.3614 H   0  0
    8.5640   -2.8713    2.0441 H   0  0
    7.1450   -3.8758    2.2387 H   0  0
    1.2776   -0.7295    0.1067 H   0  0
    1.0107   -5.5523   -1.0334 H   0  0
    9.0355   -5.2789    1.8072 H   0  0
    7.9206   -5.4110    0.4557 H   0  0
   10.3214   -5.3028   -0.2381 H   0  0
   10.4464   -3.6749    0.4464 H   0  0
    9.3773   -3.9899   -0.9413 H   0  0
   -0.8423   -1.7021   -0.6868 H   0  0
   -0.9714   -4.1108   -1.2612 H   0  0
  2  3  1  0
  3  1  1  0
  3 12  1  0
  3 19  1  0
  4  2  1  0
  5  6  1  0
  6  4  2  0
  6 20  1  0
  7  1  2  0
  8  5  1  0
  8  9  1  0
  9 11  2  0
  9 21  1  0
 10  1  1  0
 10 22  1  0
 11  4  1  0
 11 23  1  0
 12 24  1  0
 12 25  1  0
 13  5  2  0
 13 26  1  0
 14  8  2  0
 14 27  1  0
 15 12  1  0
 15 28  1  0
 15 29  1  0
 16 15  1  0
 16 30  1  0
 16 31  1  0
 16 32  1  0
 17 13  1  0
 17 33  1  0
 18 14  1  0
 18 17  2  0
 18 34  1  0
M  END
> <Name>
CHEMBL364254

> <Clean Energy>
20.493999

> <chembl_id>
CHEMBL364254

> <chembl_pref_name>
None

> <efficacy>
0.045

> <Forcefield>
MMFF

> <ForcefieldBase>
MMFF

> <ForcefieldFFML>
<?xml version="1.0" encoding="UTF-8"?>
<!DOCTYPE ffml SYSTEM "Ffml.dtd">
<ffml version="1.0">
<forcefield name="MMFF" derivedFrom="MMFF" base="MMFF">
<atomTypes>
<atomType
name="C100"
element="C"
mass="12.011"
annotation=""/>
<atomType
name="O101"
element="O"
mass="16"
annotation=""/>
<atomType
name="H102"
element="H"
mass="1.008"
annotation=""/>
</atomTypes>
<parameters>
</parameters>
</forcefield>
</ffml>

> <Initial Potential Energy>
127.77792

> <Initial RMS Gradient>
40.52886

> <Minimization Criteria>
CONJUG> Minimization exiting with gradient tolerance ( 0.0100000) satisfied.

> <CHARMm Energy>
42.27746

> <Potential Energy>
42.27746

> <RMS Gradient>
0.00905

> <Bond Energy>
4.14444

> <Angle Energy>
8.0041

> <STRBend>
0.15595

> <Dihedral Energy>
-1.61267

> <OOPLane>
0.01726

> <Van der Waals Energy>
38.75964

> <Electrostatic Energy>
-7.19125

> <Hydrogen Bond Energy>
0

> <Solvation Free Energy>
0

> <HasGasteigerCharges>
true

> <REMARK99>
REMARK  99  MacroMolecule created from Mol2 file
REMARK  99  CHEMBL364254
REMARK  99  PROTEIN
REMARK  99  GASTEIGER
REMARK  99
REMARK  99

$$$$
CHEMBL4073499
  SciTegic05292516403D

 55 58  0  0  0  0            999 V2000
   24.0773   -6.1690    0.2234 C   0  0
   23.6743   -7.4362   -0.1898 C   0  0
   24.6321   -8.3974   -0.5061 C   0  0
   25.9943   -8.0908   -0.4095 C   0  0
   26.4212   -6.8198    0.0044 C   0  0
   25.4401   -5.8641    0.3195 C   0  0
   27.8523   -6.5171    0.0986 C   0  0
   28.8992   -7.2823   -0.1616 N   0  0
   29.9916   -6.4738    0.1071 C   0  0
   29.5422   -5.2385    0.5142 C   0  0
   28.1819   -5.2520    0.5152 O   0  0
   31.3946   -6.9577   -0.0750 C   0  0
   32.3385   -6.1191    0.6108 O   0  0
   33.6687   -6.4146    0.4831 C   0  0
   34.2203   -7.4365   -0.2887 C   0  0
   35.6156   -7.5855   -0.3545 C   0  0
   36.4724   -6.7285    0.3538 C   0  0
   35.9038   -5.7349    1.1599 C   0  0
   34.5166   -5.5761    1.2123 C   0  0
   37.9797   -6.8825    0.2582 C   0  0
   38.7269   -5.6211   -0.1309 C   0  0
   39.9205   -5.2742    0.5244 C   0  0
   40.6156   -4.1132    0.1730 C   0  0
   40.1124   -3.2839   -0.8275 C   0  0
   38.9647   -3.6450   -1.5263 C   0  0
   38.2767   -4.8092   -1.1830 C   0  0
   40.7324   -2.1305   -1.2162 O   0  0
   40.8719   -1.1752   -0.1619 C   0  0  2  0  0  0
   40.7093    0.2026   -0.7968 C   0  0
   42.2213   -1.2148    0.5623 C   0  0
   43.2425   -1.7344    0.1367 O   0  0
   42.1992   -0.5880    1.7693 O   0  0
   23.3343   -5.4157    0.4723 H   0  0
   22.6159   -7.6742   -0.2645 H   0  0
   24.3242   -9.3889   -0.8283 H   0  0
   26.7226   -8.8587   -0.6614 H   0  0
   25.7283   -4.8666    0.6451 H   0  0
   30.0181   -4.3161    0.8131 H   0  0
   31.4671   -7.9795    0.3168 H   0  0
   31.6117   -6.9585   -1.1502 H   0  0
   33.6077   -8.1290   -0.8592 H   0  0
   36.0305   -8.3763   -0.9760 H   0  0
   36.5367   -5.0628    1.7359 H   0  0
   34.0922   -4.7854    1.8265 H   0  0
   38.3317   -7.2445    1.2329 H   0  0
   38.2367   -7.6582   -0.4745 H   0  0
   40.3154   -5.9135    1.3107 H   0  0
   41.5599   -3.8888    0.6644 H   0  0
   38.5876   -3.0203   -2.3313 H   0  0
   37.3800   -5.0718   -1.7399 H   0  0
   40.0732   -1.3136    0.5801 H   0  0
   40.7781    1.0025   -0.0531 H   0  0
   39.7418    0.2792   -1.3048 H   0  0
   41.4815    0.3752   -1.5555 H   0  0
   41.3111   -0.2756    2.0333 H   0  0
  1  2  2  0
  1 33  1  0
  2  3  1  0
  2 34  1  0
  3  4  2  0
  3 35  1  0
  4  5  1  0
  4 36  1  0
  5  6  2  0
  5  7  1  0
  6  1  1  0
  6 37  1  0
  7  8  2  0
  8  9  1  0
  9 10  2  0
  9 12  1  0
 10 11  1  0
 10 38  1  0
 11  7  1  0
 12 13  1  0
 12 39  1  0
 12 40  1  0
 13 14  1  0
 14 15  2  0
 15 16  1  0
 15 41  1  0
 16 17  2  0
 16 42  1  0
 17 18  1  0
 17 20  1  0
 18 19  2  0
 18 43  1  0
 19 14  1  0
 19 44  1  0
 20 21  1  0
 20 45  1  0
 20 46  1  0
 21 22  2  0
 22 23  1  0
 22 47  1  0
 23 24  2  0
 23 48  1  0
 24 25  1  0
 24 27  1  0
 25 26  2  0
 25 49  1  0
 26 21  1  0
 26 50  1  0
 27 28  1  0
 28 29  1  0
 28 30  1  0
 28 51  1  0
 29 52  1  0
 29 53  1  0
 29 54  1  0
 30 31  2  0
 30 32  1  0
 32 55  1  0
M  END
> <Name>
CHEMBL4073499

> <Clean Energy>
38.655102

> <chembl_id>
CHEMBL4073499

> <chembl_pref_name>
None

> <efficacy>
0.26

> <Forcefield>
MMFF

> <ForcefieldBase>
MMFF

> <ForcefieldFFML>
<?xml version="1.0" encoding="UTF-8"?>
<!DOCTYPE ffml SYSTEM "Ffml.dtd">
<ffml version="1.0">
<forcefield name="MMFF" derivedFrom="MMFF" base="MMFF">
<atomTypes>
<atomType
name="C100"
element="C"
mass="12.011"
annotation=""/>
<atomType
name="N101"
element="N"
mass="14.007"
annotation=""/>
<atomType
name="O102"
element="O"
mass="16"
annotation=""/>
<atomType
name="H103"
element="H"
mass="1.008"
annotation=""/>
</atomTypes>
<parameters>
</parameters>
</forcefield>
</ffml>

> <Initial Potential Energy>
199.09126

> <Initial RMS Gradient>
29.93786

> <Minimization Criteria>
STEEPD> Minimization exiting with gradient tolerance ( 3.0000000) satisfied.

> <CHARMm Energy>
109.96501

> <Potential Energy>
109.96501

> <RMS Gradient>
0.08692

> <Bond Energy>
6.6339

> <Angle Energy>
14.44038

> <STRBend>
0.09608

> <Dihedral Energy>
4.0166

> <OOPLane>
0.04693

> <Van der Waals Energy>
58.8582

> <Electrostatic Energy>
25.87293

> <Hydrogen Bond Energy>
0

> <Solvation Free Energy>
0

> <HasGasteigerCharges>
true

> <REMARK99>
REMARK  99  MacroMolecule created from Mol2 file
REMARK  99  CHEMBL4073499
REMARK  99  PROTEIN
REMARK  99  GASTEIGER
REMARK  99
REMARK  99

$$$$
CHEMBL2206306
  SciTegic05292516403D

 73 76  0  0  0  0            999 V2000
   20.3140  -12.2689    0.0789 C   0  0  2  0  0  0
    8.5811  -17.9478   -0.3224 C   0  0
    8.5363  -19.0613    0.5255 C   0  0
    9.7093  -19.7332    0.9015 C   0  0
    9.7957  -17.4601   -0.8219 C   0  0
   10.9344  -18.1502   -0.4217 C   0  0
   10.9303  -19.2582    0.4066 C   0  0
   12.2098  -19.7067    0.5890 N   0  0
   12.9429  -18.8839   -0.1271 C   0  0
   12.2351  -17.8848   -0.7483 O   0  0
   14.2903  -18.8959   -0.2872 N   0  0
   15.0034  -17.6714   -0.7351 C   0  0
   15.3596  -16.7237    0.4339 C   0  0
   16.3611  -15.6128    0.1268 C   0  0
   17.6318  -15.6114    0.7235 C   0  0
   18.5421  -14.5483    0.5325 C   0  0
   18.2122  -13.4543   -0.2682 C   0  0
   16.9508  -13.4602   -0.8794 C   0  0
   16.0362  -14.5202   -0.6862 C   0  0
   19.0042  -12.3529   -0.5306 O   0  0
   20.8220  -10.7973    0.1218 C   0  0
   20.4835  -10.0355   -0.9471 O   0  0
   21.5150  -10.3335    1.0220 O   0  0
   15.0316  -19.9564    0.4088 C   0  0
   16.3480  -20.3244   -0.2812 C   0  0
   16.9846  -21.5612    0.3584 C   0  0
   18.3159  -21.9105   -0.3111 C   0  0
   18.9521  -23.1448    0.3319 C   0  0
   20.2380  -23.5959   -0.3641 C   0  0
   21.3761  -22.5939   -0.2459 C   0  0
   21.3135  -13.1039   -0.7471 C   0  0
   22.7159  -13.3184   -0.2174 C   0  0
   23.7067  -13.7402   -1.1243 C   0  0
   25.0177  -13.9712   -0.7051 C   0  0
   25.3567  -13.7930    0.6318 C   0  0
   24.3911  -13.3815    1.5459 C   0  0
   23.0765  -13.1545    1.1269 C   0  0
   20.2425  -12.5825    1.1262 H   0  0
    7.6532  -17.4508   -0.6001 H   0  0
    7.5769  -19.4153    0.8971 H   0  0
    9.6778  -20.6000    1.5525 H   0  0
    9.8424  -16.6043   -1.4821 H   0  0
   15.9164  -17.9529   -1.2709 H   0  0
   14.4104  -17.1267   -1.4810 H   0  0
   14.4418  -16.2596    0.8181 H   0  0
   15.7530  -17.3158    1.2698 H   0  0
   17.9336  -16.4339    1.3712 H   0  0
   19.4975  -14.6248    1.0404 H   0  0
   16.6580  -12.6216   -1.5083 H   0  0
   15.0563  -14.4626   -1.1589 H   0  0
   19.8984  -10.4977   -1.5764 H   0  0
   15.2274  -19.6473    1.4429 H   0  0
   14.4215  -20.8680    0.4606 H   0  0
   16.1700  -20.5115   -1.3473 H   0  0
   17.0550  -19.4898   -0.2100 H   0  0
   17.1482  -21.3783    1.4275 H   0  0
   16.2979  -22.4123    0.2764 H   0  0
   18.1519  -22.0954   -1.3796 H   0  0
   18.9936  -21.0533   -0.2293 H   0  0
   19.1576  -22.9463    1.3909 H   0  0
   18.2358  -23.9751    0.2995 H   0  0
   20.5609  -24.5432    0.0841 H   0  0
   20.0385  -23.7982   -1.4228 H   0  0
   22.2916  -23.0136   -0.6753 H   0  0
   21.5757  -22.3471    0.8016 H   0  0
   21.1533  -21.6680   -0.7839 H   0  0
   20.8942  -14.0999   -0.9350 H   0  0
   21.3928  -12.6370   -1.7397 H   0  0
   23.4581  -13.8895   -2.1736 H   0  0
   25.7811  -14.2764   -1.4184 H   0  0
   26.3795  -13.9599    0.9606 H   0  0
   24.6708  -13.2207    2.5856 H   0  0
   22.3610  -12.8261    1.8757 H   0  0
  1 21  1  0
  1 31  1  0
  1 38  1  0
  2  3  2  0
  2 39  1  0
  3  4  1  0
  3 40  1  0
  4  7  2  0
  4 41  1  0
  5  2  1  0
  5 42  1  0
  6  5  2  0
  6  7  1  0
  7  8  1  0
  8  9  2  0
  9 10  1  0
  9 11  1  0
 10  6  1  0
 11 12  1  0
 11 24  1  0
 12 13  1  0
 12 43  1  0
 12 44  1  0
 13 14  1  0
 13 45  1  0
 13 46  1  0
 14 15  2  0
 15 16  1  0
 15 47  1  0
 16 17  2  0
 16 48  1  0
 17 18  1  0
 17 20  1  0
 18 19  2  0
 18 49  1  0
 19 14  1  0
 19 50  1  0
 20  1  1  0
 21 22  1  0
 21 23  2  0
 22 51  1  0
 24 25  1  0
 24 52  1  0
 24 53  1  0
 25 26  1  0
 25 54  1  0
 25 55  1  0
 26 27  1  0
 26 56  1  0
 26 57  1  0
 27 28  1  0
 27 58  1  0
 27 59  1  0
 28 29  1  0
 28 60  1  0
 28 61  1  0
 29 30  1  0
 29 62  1  0
 29 63  1  0
 30 64  1  0
 30 65  1  0
 30 66  1  0
 31 32  1  0
 31 67  1  0
 31 68  1  0
 32 33  2  0
 33 34  1  0
 33 69  1  0
 34 35  2  0
 34 70  1  0
 35 36  1  0
 35 71  1  0
 36 37  2  0
 36 72  1  0
 37 32  1  0
 37 73  1  0
M  END
> <Name>
CHEMBL2206306

> <Clean Energy>
49.800098

> <chembl_id>
CHEMBL2206306

> <chembl_pref_name>
None

> <efficacy>
0.31

> <Forcefield>
MMFF

> <ForcefieldBase>
MMFF

> <ForcefieldFFML>
<?xml version="1.0" encoding="UTF-8"?>
<!DOCTYPE ffml SYSTEM "Ffml.dtd">
<ffml version="1.0">
<forcefield name="MMFF" derivedFrom="MMFF" base="MMFF">
<atomTypes>
<atomType
name="C100"
element="C"
mass="12.011"
annotation=""/>
<atomType
name="N101"
element="N"
mass="14.007"
annotation=""/>
<atomType
name="O102"
element="O"
mass="16"
annotation=""/>
<atomType
name="H103"
element="H"
mass="1.008"
annotation=""/>
</atomTypes>
<parameters>
</parameters>
</forcefield>
</ffml>

> <Initial Potential Energy>
141.25807

> <Initial RMS Gradient>
26.1711

> <Minimization Criteria>
CONJUG> Minimization exiting with gradient tolerance ( 0.0100000) satisfied.

> <CHARMm Energy>
41.88903

> <Potential Energy>
41.88903

> <RMS Gradient>
0.00988

> <Bond Energy>
9.62874

> <Angle Energy>
20.40239

> <STRBend>
1.43073

> <Dihedral Energy>
-10.9727

> <OOPLane>
0.69227

> <Van der Waals Energy>
64.70194

> <Electrostatic Energy>
-43.99432

> <Hydrogen Bond Energy>
0

> <Solvation Free Energy>
0

> <HasGasteigerCharges>
true

> <REMARK99>
REMARK  99  MacroMolecule created from Mol2 file
REMARK  99  CHEMBL2206306
REMARK  99  PROTEIN
REMARK  99  GASTEIGER
REMARK  99
REMARK  99

$$$$
CHEMBL2322175
  SciTegic05292516403D

 72 78  0  0  0  0            999 V2000
   32.5531  -18.7582    0.0233 C   0  0
   29.5436  -18.1801   -0.6884 C   0  0
   30.6477  -17.2901   -0.5905 N   0  0
   30.5205  -15.9790   -0.1126 C   0  0
   29.3392  -15.4974    0.3228 C   0  0
   28.3153  -17.6280   -0.1741 C   0  0
   28.2078  -16.3532    0.3060 C   0  0
   26.9708  -16.0787    0.7710 N   0  0
   26.2830  -17.2042    0.6147 C   0  0
   27.0627  -18.1835    0.0030 N   0  0
   24.8633  -17.3691    1.0649 C   0  0
   24.3605  -16.1783    1.8724 C   0  0
   26.7856  -19.5738   -0.3570 C   0  0  1  0  0  0
   26.0036  -20.9936    1.5169 C   0  0
   27.2478  -20.5819    0.7195 C   0  0
   24.9189  -20.7913    0.5061 C   0  0
   25.3479  -19.9667   -0.5399 C   0  0
   24.4977  -19.6372   -1.5833 C   0  0
   23.1878  -20.1200   -1.5470 C   0  0
   22.7339  -20.9320   -0.4842 C   0  0
   23.6194  -21.2646    0.5552 C   0  0
   21.3444  -21.4072   -0.4479 C   0  0
   20.3309  -20.4586   -0.1780 C   0  0
   18.9937  -20.8306   -0.0589 C   0  0
   18.6401  -22.1632   -0.2008 C   0  0
   19.6241  -23.1129   -0.4743 C   0  0
   20.9807  -22.7620   -0.6164 C   0  0
   21.9069  -23.8523   -0.9459 C   0  0
   23.0674  -23.7542   -1.6659 N   0  0
   23.5812  -24.9717   -1.8984 N   0  0
   22.7731  -25.8103   -1.2728 N   0  0
   21.7325  -25.1381   -0.6872 N   0  0
   29.6357  -19.3091   -1.1628 O   0  0
   31.9616  -17.7944   -0.9925 C   0  0
   32.6640  -18.3523    1.3676 C   0  0
   33.1683  -19.2129    2.3421 C   0  0
   33.5934  -20.4871    1.9895 C   0  0
   33.5191  -20.8989    0.6604 C   0  0
   33.0101  -20.0463   -0.3348 C   0  0
   32.9623  -20.5510   -1.7518 C   0  0
   29.1232  -14.1170    0.8531 C   0  0
   31.4213  -15.3684   -0.0986 H   0  0
   24.2116  -17.4836    0.1944 H   0  0
   24.7731  -18.2566    1.6956 H   0  0
   23.3264  -16.3472    2.1900 H   0  0
   24.3852  -15.2572    1.2799 H   0  0
   24.9693  -16.0211    2.7694 H   0  0
   27.2992  -19.7695   -1.3045 H   0  0
   26.0718  -22.0326    1.8516 H   0  0
   25.8491  -20.3356    2.3776 H   0  0
   28.0429  -20.2058    1.3720 H   0  0
   27.6469  -21.4731    0.2144 H   0  0
   24.8280  -19.0048   -2.4035 H   0  0
   22.5087  -19.8498   -2.3538 H   0  0
   23.2845  -21.8752    1.3924 H   0  0
   20.5904  -19.4101   -0.0358 H   0  0
   18.2328  -20.0846    0.1567 H   0  0
   17.6033  -22.4656   -0.0975 H   0  0
   19.3302  -24.1537   -0.5857 H   0  0
   23.5274  -22.9396   -2.0488 H   0  0
   31.8351  -18.2695   -1.9702 H   0  0
   32.6594  -16.9606   -1.1391 H   0  0
   32.3598  -17.3532    1.6730 H   0  0
   33.2355  -18.8827    3.3754 H   0  0
   33.9939  -21.1568    2.7458 H   0  0
   33.8676  -21.8974    0.4026 H   0  0
   31.9253  -20.6503   -2.0865 H   0  0
   33.4344  -21.5348   -1.8457 H   0  0
   33.5026  -19.8698   -2.4171 H   0  0
   28.3772  -13.5818    0.2558 H   0  0
   30.0473  -13.5292    0.8266 H   0  0
   28.7828  -14.1467    1.8938 H   0  0
  1 35  2  0
  2  3  1  0
  2 33  2  0
  3  4  1  0
  3 34  1  0
  4  5  2  0
  4 42  1  0
  5  7  1  0
  5 41  1  0
  6  2  1  0
  6  7  2  0
  7  8  1  0
  8  9  2  0
  9 10  1  0
  9 11  1  0
 10  6  1  0
 11 12  1  0
 11 43  1  0
 11 44  1  0
 12 45  1  0
 12 46  1  0
 12 47  1  0
 13 10  1  0
 13 17  1  0
 13 48  1  0
 14 15  1  0
 14 49  1  0
 14 50  1  0
 15 13  1  0
 15 51  1  0
 15 52  1  0
 16 14  1  0
 16 17  2  0
 17 18  1  0
 18 19  2  0
 18 53  1  0
 19 20  1  0
 19 54  1  0
 20 21  2  0
 20 22  1  0
 21 16  1  0
 21 55  1  0
 22 23  2  0
 23 24  1  0
 23 56  1  0
 24 25  2  0
 24 57  1  0
 25 26  1  0
 25 58  1  0
 26 27  2  0
 26 59  1  0
 27 22  1  0
 27 28  1  0
 28 29  1  0
 29 30  1  0
 29 60  1  0
 30 31  2  0
 31 32  1  0
 32 28  2  0
 34  1  1  0
 34 61  1  0
 34 62  1  0
 35 36  1  0
 35 63  1  0
 36 37  2  0
 36 64  1  0
 37 38  1  0
 37 65  1  0
 38 39  2  0
 38 66  1  0
 39  1  1  0
 39 40  1  0
 40 67  1  0
 40 68  1  0
 40 69  1  0
 41 70  1  0
 41 71  1  0
 41 72  1  0
M  END
> <Name>
CHEMBL2322175

> <Clean Energy>
108.008003

> <chembl_id>
CHEMBL2322175

> <chembl_pref_name>
None

> <efficacy>
0.347826087

> <Forcefield>
MMFF

> <ForcefieldBase>
MMFF

> <ForcefieldFFML>
<?xml version="1.0" encoding="UTF-8"?>
<!DOCTYPE ffml SYSTEM "Ffml.dtd">
<ffml version="1.0">
<forcefield name="MMFF" derivedFrom="MMFF" base="MMFF">
<atomTypes>
<atomType
name="C100"
element="C"
mass="12.011"
annotation=""/>
<atomType
name="N101"
element="N"
mass="14.007"
annotation=""/>
<atomType
name="O102"
element="O"
mass="16"
annotation=""/>
<atomType
name="H103"
element="H"
mass="1.008"
annotation=""/>
</atomTypes>
<parameters>
</parameters>
</forcefield>
</ffml>

> <Initial Potential Energy>
271.61684

> <Initial RMS Gradient>
35.21962

> <Minimization Criteria>
STEEPD> Minimization exiting with gradient tolerance ( 3.0000000) satisfied.

> <CHARMm Energy>
73.22877

> <Potential Energy>
73.22877

> <RMS Gradient>
0.06243

> <Bond Energy>
10.93697

> <Angle Energy>
21.42812

> <STRBend>
-0.41194

> <Dihedral Energy>
4.64308

> <OOPLane>
0.13952

> <Van der Waals Energy>
75.45797

> <Electrostatic Energy>
-38.96496

> <Hydrogen Bond Energy>
0

> <Solvation Free Energy>
0

> <HasGasteigerCharges>
true

> <REMARK99>
REMARK  99  MacroMolecule created from Mol2 file
REMARK  99  CHEMBL2322175
REMARK  99  PROTEIN
REMARK  99  GASTEIGER
REMARK  99
REMARK  99

$$$$
CHEMBL3115239
  SciTegic05292516403D

 78 82  0  0  0  0            999 V2000
    1.4626  -12.5875   -2.1916 C   0  0
    1.9787  -13.8120   -1.7634 C   0  0
    1.8800  -14.2004   -0.4171 C   0  0
    1.2639  -13.3231    0.4888 C   0  0
    0.7418  -12.1021    0.0569 C   0  0
    0.8369  -11.7358   -1.2836 C   0  0
    2.4384  -15.5262    0.0795 C   0  0  2  0  0  0
    3.8886  -15.4917    0.0000 N   0  0
    1.8549  -16.7179   -0.7061 C   0  0
    2.1833  -18.0674   -0.0801 C   0  0
    4.7018  -15.9727    1.0015 C   0  0
    6.1628  -15.8397    0.7402 C   0  0
    4.2898  -16.5007    2.0273 O   0  0
    6.6765  -14.6571    0.2017 C   0  0
    8.0469  -14.5145   -0.0291 C   0  0
    7.0172  -16.9083    1.0623 C   0  0
    9.5478  -17.6565    1.0491 C   0  0
    8.4095  -16.7900    0.8266 C   0  0
    8.8853  -15.5923    0.2951 C   0  0
   10.2485  -15.7201    0.1953 N   0  0
   10.6850  -16.9116    0.7215 C   0  0
   11.0821  -14.6990   -0.2851 O   0  0
    9.4399  -19.0288    1.6569 C   0  0
   12.1474  -17.2089    0.8673 C   0  0
   12.5928  -17.1316    2.3285 C   0  0
   14.0659  -17.4784    2.4775 C   0  0
   10.4030  -19.9939    0.9983 C   0  0
   10.4023  -20.2387   -0.3832 C   0  0
   11.2795  -21.1767   -0.9488 C   0  0
   12.1633  -21.9167   -0.1498 C   0  0
   12.1496  -21.6820    1.2321 C   0  0
   11.2856  -20.7364    1.7973 C   0  0
   13.0345  -22.9559   -0.7264 C   0  0
   12.7164  -24.3114   -0.5027 C   0  0
   13.5138  -25.3455   -1.0092 C   0  0
   14.6492  -25.0475   -1.7576 C   0  0
   14.9895  -23.7178   -1.9960 C   0  0
   14.1916  -22.6824   -1.4799 C   0  0
   14.6398  -21.3018   -1.7509 C   0  0
   15.7690  -21.0101   -1.0691 O   0  0
   14.0695  -20.5334   -2.5033 O   0  0
   11.2591  -14.8911   -1.6863 C   0  0
    1.5495  -12.2978   -3.2354 H   0  0
    2.4575  -14.4617   -2.4919 H   0  0
    1.1813  -13.5878    1.5418 H   0  0
    0.2646  -11.4361    0.7709 H   0  0
    0.4273  -10.7856   -1.6177 H   0  0
    2.1535  -15.6494    1.1323 H   0  0
    4.3220  -15.1777   -0.8589 H   0  0
    0.7626  -16.6224   -0.7552 H   0  0
    2.2199  -16.7186   -1.7406 H   0  0
    1.6800  -18.8684   -0.6312 H   0  0
    1.8477  -18.1110    0.9607 H   0  0
    3.2579  -18.2703   -0.1088 H   0  0
    6.0207  -13.8153   -0.0116 H   0  0
    8.4532  -13.5870   -0.4237 H   0  0
    6.6020  -17.8135    1.4984 H   0  0
    9.6412  -18.9481    2.7320 H   0  0
    8.4276  -19.4342    1.5477 H   0  0
   12.3741  -18.1956    0.4529 H   0  0
   12.7483  -16.5058    0.2789 H   0  0
   12.4181  -16.1217    2.7192 H   0  0
   12.0026  -17.8158    2.9487 H   0  0
   14.3663  -17.4134    3.5280 H   0  0
   14.6917  -16.7889    1.9019 H   0  0
   14.2656  -18.4970    2.1295 H   0  0
    9.7235  -19.6912   -1.0347 H   0  0
   11.2716  -21.3333   -2.0269 H   0  0
   12.8079  -22.2439    1.8904 H   0  0
   11.3114  -20.5907    2.8758 H   0  0
   11.8258  -24.5674    0.0718 H   0  0
   13.2434  -26.3847   -0.8256 H   0  0
   15.2620  -25.8518   -2.1595 H   0  0
   15.8664  -23.4808   -2.5950 H   0  0
   16.0483  -21.7115   -0.4497 H   0  0
   10.3084  -14.7853   -2.2189 H   0  0
   11.7058  -15.8674   -1.9011 H   0  0
   11.9410  -14.1167   -2.0490 H   0  0
  1  2  2  0
  1 43  1  0
  2  3  1  0
  2 44  1  0
  3  4  2  0
  3  7  1  0
  4  5  1  0
  4 45  1  0
  5  6  2  0
  5 46  1  0
  6  1  1  0
  6 47  1  0
  7  8  1  0
  7  9  1  0
  7 48  1  0
  8 11  1  0
  8 49  1  0
  9 10  1  0
  9 50  1  0
  9 51  1  0
 10 52  1  0
 10 53  1  0
 10 54  1  0
 11 12  1  0
 11 13  2  0
 12 14  2  0
 14 15  1  0
 14 55  1  0
 15 19  2  0
 15 56  1  0
 16 12  1  0
 16 57  1  0
 17 18  1  0
 17 23  1  0
 18 16  2  0
 18 19  1  0
 19 20  1  0
 20 21  1  0
 20 22  1  0
 21 17  2  0
 21 24  1  0
 22 42  1  0
 23 27  1  0
 23 58  1  0
 23 59  1  0
 24 25  1  0
 24 60  1  0
 24 61  1  0
 25 26  1  0
 25 62  1  0
 25 63  1  0
 26 64  1  0
 26 65  1  0
 26 66  1  0
 27 28  2  0
 28 29  1  0
 28 67  1  0
 29 30  2  0
 29 68  1  0
 30 31  1  0
 30 33  1  0
 31 32  2  0
 31 69  1  0
 32 27  1  0
 32 70  1  0
 33 34  2  0
 34 35  1  0
 34 71  1  0
 35 36  2  0
 35 72  1  0
 36 37  1  0
 36 73  1  0
 37 38  2  0
 37 74  1  0
 38 33  1  0
 38 39  1  0
 39 40  1  0
 39 41  2  0
 40 75  1  0
 42 76  1  0
 42 77  1  0
 42 78  1  0
M  END
> <Name>
CHEMBL3115239

> <Clean Energy>
92.317001

> <chembl_id>
CHEMBL3115239

> <chembl_pref_name>
None

> <efficacy>
0.29

> <Forcefield>
MMFF

> <ForcefieldBase>
MMFF

> <ForcefieldFFML>
<?xml version="1.0" encoding="UTF-8"?>
<!DOCTYPE ffml SYSTEM "Ffml.dtd">
<ffml version="1.0">
<forcefield name="MMFF" derivedFrom="MMFF" base="MMFF">
<atomTypes>
<atomType
name="C100"
element="C"
mass="12.011"
annotation=""/>
<atomType
name="N101"
element="N"
mass="14.007"
annotation=""/>
<atomType
name="O102"
element="O"
mass="16"
annotation=""/>
<atomType
name="H103"
element="H"
mass="1.008"
annotation=""/>
</atomTypes>
<parameters>
</parameters>
</forcefield>
</ffml>

> <Initial Potential Energy>
300.14129

> <Initial RMS Gradient>
33.11672

> <Minimization Criteria>
STEEPD> Minimization exiting with gradient tolerance ( 3.0000000) satisfied.

> <CHARMm Energy>
74.51348

> <Potential Energy>
74.51348

> <RMS Gradient>
0.0182

> <Bond Energy>
10.75688

> <Angle Energy>
11.0641

> <STRBend>
-0.22498

> <Dihedral Energy>
11.09854

> <OOPLane>
0.19653

> <Van der Waals Energy>
77.64182

> <Electrostatic Energy>
-36.01942

> <Hydrogen Bond Energy>
0

> <Solvation Free Energy>
0

> <HasGasteigerCharges>
true

> <REMARK99>
REMARK  99  MacroMolecule created from Mol2 file
REMARK  99  CHEMBL3115239
REMARK  99  PROTEIN
REMARK  99  GASTEIGER
REMARK  99
REMARK  99

$$$$
CHEMBL2042810
  SciTegic05292516403D

 62 66  0  0  0  0            999 V2000
    8.1666  -14.5958   -1.1551 O   0  0
    7.0416  -13.7665   -1.1362 C   0  0
    7.3810  -12.3955   -0.6238 C   0  0  2  0  0  0
    8.6859  -12.7120    0.0558 C   0  0
    9.1538  -13.9686   -0.4002 C   0  0
   10.4350  -14.4594   -0.0949 C   0  0
   11.2355  -13.6293    0.7283 C   0  0
   10.7339  -12.4117    1.2398 C   0  0
    9.4680  -11.9523    0.8958 C   0  0
    9.0778  -10.7543    1.4024 O   0  0
   12.5038  -14.0439    1.0756 O   0  0
   13.4913  -13.0132    1.0443 C   0  0
   10.9442  -15.7551   -0.6923 C   0  0
   12.1803  -16.2121   -0.2661 N   0  0
   12.8660  -17.3610   -0.8276 C   0  0
   14.2551  -17.4953   -0.2275 C   0  0
   15.3018  -16.6049   -0.6385 C   0  0
   16.5756  -16.7132   -0.0289 C   0  0
   16.7955  -17.7042    0.9347 C   0  0
   15.7743  -18.5504    1.3484 C   0  0
   14.4951  -18.4512    0.7914 C   0  0
   13.4184  -19.3740    1.2984 C   0  0
   18.0110  -17.8544    1.4918 F   0  0
   17.6041  -15.8241   -0.3866 C   0  0
   17.4113  -14.8393   -1.3522 C   0  0
   16.1788  -14.7270   -1.9740 C   0  0
   15.1425  -15.5959   -1.6216 C   0  0
   10.2969  -16.3548   -1.5434 O   0  0
    6.2229  -11.8798    0.2351 C   0  0
    4.8199  -12.1836   -0.2343 C   0  0
    4.6734  -13.2738   -1.0232 C   0  0
    5.7784  -14.1689   -1.3368 C   0  0
    3.4734  -13.7044   -1.5518 O   0  0
    3.6208  -11.3417    0.1095 C   0  0
    3.7901  -10.1416    1.0019 C   0  0
    2.5105  -11.6326   -0.3477 O   0  0
    6.4163  -11.1522    1.2120 O   0  0
    7.6200  -11.4044   -1.7746 C   0  0
   11.3271  -11.8041    1.9180 H   0  0
    8.0979  -10.7283    1.4696 H   0  0
   14.4708  -13.4957    0.9728 H   0  0
   13.4756  -12.4346    1.9728 H   0  0
   13.3754  -12.3608    0.1716 H   0  0
   12.6479  -15.6836    0.4632 H   0  0
   12.2402  -18.2413   -0.6533 H   0  0
   12.9137  -17.2565   -1.9175 H   0  0
   15.9965  -19.2856    2.1172 H   0  0
   13.7672  -19.9684    2.1501 H   0  0
   13.1152  -20.0718    0.5117 H   0  0
   12.5515  -18.8005    1.6418 H   0  0
   18.5763  -15.8999    0.0961 H   0  0
   18.2320  -14.1779   -1.6216 H   0  0
   16.0151  -13.9652   -2.7316 H   0  0
   14.1916  -15.4631   -2.1337 H   0  0
    5.5553  -15.1851   -1.6484 H   0  0
    2.7401  -13.0854   -1.3020 H   0  0
    4.5357   -9.4597    0.5856 H   0  0
    4.0631  -10.4589    2.0111 H   0  0
    2.8398   -9.6012    1.0608 H   0  0
    7.9470  -10.4306   -1.3903 H   0  0
    6.7073  -11.2290   -2.3564 H   0  0
    8.3908  -11.7580   -2.4704 H   0  0
  1  2  1  0
  2  3  1  0
  2 32  2  0
  3  4  1  0
  3 29  1  0
  3 38  1  0
  4  5  2  0
  4  9  1  0
  5  1  1  0
  5  6  1  0
  6  7  2  0
  6 13  1  0
  7  8  1  0
  7 11  1  0
  8  9  2  0
  8 39  1  0
  9 10  1  0
 10 40  1  0
 11 12  1  0
 12 41  1  0
 12 42  1  0
 12 43  1  0
 13 14  1  0
 13 28  2  0
 14 15  1  0
 14 44  1  0
 15 16  1  0
 15 45  1  0
 15 46  1  0
 16 21  1  0
 17 16  2  0
 17 27  1  0
 18 17  1  0
 18 24  1  0
 19 18  2  0
 19 23  1  0
 20 19  1  0
 20 21  2  0
 20 47  1  0
 21 22  1  0
 22 48  1  0
 22 49  1  0
 22 50  1  0
 24 25  2  0
 24 51  1  0
 25 26  1  0
 25 52  1  0
 26 27  2  0
 26 53  1  0
 27 54  1  0
 29 30  1  0
 29 37  2  0
 30 31  2  0
 30 34  1  0
 31 32  1  0
 31 33  1  0
 32 55  1  0
 33 56  1  0
 34 35  1  0
 34 36  2  0
 35 57  1  0
 35 58  1  0
 35 59  1  0
 38 60  1  0
 38 61  1  0
 38 62  1  0
M  END
> <Name>
CHEMBL2042810

> <Clean Energy>
63.805302

> <chembl_id>
CHEMBL2042810

> <chembl_pref_name>
None

> <efficacy>
0.471698113

> <Forcefield>
MMFF

> <ForcefieldBase>
MMFF

> <ForcefieldFFML>
<?xml version="1.0" encoding="UTF-8"?>
<!DOCTYPE ffml SYSTEM "Ffml.dtd">
<ffml version="1.0">
<forcefield name="MMFF" derivedFrom="MMFF" base="MMFF">
<atomTypes>
<atomType
name="O100"
element="O"
mass="16"
annotation=""/>
<atomType
name="C101"
element="C"
mass="12.011"
annotation=""/>
<atomType
name="N102"
element="N"
mass="14.007"
annotation=""/>
<atomType
name="F103"
element="F"
mass="18.998"
annotation=""/>
<atomType
name="H104"
element="H"
mass="1.008"
annotation=""/>
</atomTypes>
<parameters>
</parameters>
</forcefield>
</ffml>

> <Initial Potential Energy>
295.35844

> <Initial RMS Gradient>
74.60757

> <Minimization Criteria>
STEEPD> Minimization exiting with gradient tolerance ( 3.0000000) satisfied.

> <CHARMm Energy>
67.44182

> <Potential Energy>
67.44182

> <RMS Gradient>
0.06756

> <Bond Energy>
12.36111

> <Angle Energy>
28.23345

> <STRBend>
0.816

> <Dihedral Energy>
9.55274

> <OOPLane>
0.52469

> <Van der Waals Energy>
81.26917

> <Electrostatic Energy>
-65.31533

> <Hydrogen Bond Energy>
0

> <Solvation Free Energy>
0

> <HasGasteigerCharges>
true

> <REMARK99>
REMARK  99  MacroMolecule created from Mol2 file
REMARK  99  CHEMBL2042810
REMARK  99  PROTEIN
REMARK  99  GASTEIGER
REMARK  99
REMARK  99

$$$$
CHEMBL1172963
  SciTegic05292516403D

 42 43  0  0  0  0            999 V2000
    3.2275   -6.7619   -0.2678 C   0  0
    2.1077   -7.4230   -0.5577 N   0  0
    2.1973   -8.7657   -0.6750 C   0  0
    3.3826   -9.4546   -0.4915 C   0  0
    4.4923   -8.6861   -0.1706 C   0  0
    4.4166   -7.3459   -0.0843 N   0  0
    3.4705  -10.9219   -0.5842 C   0  0
    2.6460  -11.6724   -0.0920 O   0  0
    4.5699  -11.3679   -1.2368 O   0  0
    3.1763   -4.9985   -0.0974 S   0  0
    5.7448   -9.2780    0.0031 N   0  0
    0.6542   -9.5118   -1.1529 S   0  0
   -0.1758   -9.3755    0.4565 C   0  0
   -1.6542   -9.6272    0.3398 C   0  0
   -2.1687  -10.9208    0.4999 C   0  0
   -3.5388  -11.1503    0.3883 C   0  0
   -4.4018  -10.0924    0.1096 C   0  0
   -3.9005   -8.8044   -0.0638 C   0  0
   -2.5311   -8.5714    0.0472 C   0  0
    1.4209   -4.6882   -0.4075 C   0  0
    6.8980   -8.3964    0.1549 C   0  0
    8.1765   -9.2345    0.1970 C   0  0
    9.4121   -8.3616    0.3531 C   0  0
    5.2233  -10.6694   -1.4707 H   0  0
    5.7692  -10.1172    0.5819 H   0  0
    0.2750  -10.0889    1.1566 H   0  0
   -0.0212   -8.3775    0.8832 H   0  0
   -1.5036  -11.7567    0.7081 H   0  0
   -3.9346  -12.1547    0.5142 H   0  0
   -5.4682  -10.2720    0.0198 H   0  0
   -4.5785   -7.9852   -0.2889 H   0  0
   -2.1488   -7.5638   -0.0994 H   0  0
    1.2320   -3.6134   -0.3355 H   0  0
    0.7986   -5.1937    0.3362 H   0  0
    1.1370   -5.0188   -1.4107 H   0  0
    6.9573   -7.6980   -0.6892 H   0  0
    6.8094   -7.8148    1.0808 H   0  0
    8.1292   -9.9476    1.0297 H   0  0
    8.2645   -9.8255   -0.7232 H   0  0
   10.3126   -8.9828    0.3867 H   0  0
    9.3669   -7.7792    1.2790 H   0  0
    9.5108   -7.6653   -0.4862 H   0  0
  1  2  1  0
  1  6  2  0
  1 10  1  0
  2  3  2  0
  3  4  1  0
  3 12  1  0
  4  5  2  0
  4  7  1  0
  5  6  1  0
  5 11  1  0
  7  8  2  0
  7  9  1  0
  9 24  1  0
 10 20  1  0
 11 21  1  0
 11 25  1  0
 12 13  1  0
 13 14  1  0
 13 26  1  0
 13 27  1  0
 14 15  1  0
 14 19  2  0
 15 16  2  0
 15 28  1  0
 16 17  1  0
 16 29  1  0
 17 18  2  0
 17 30  1  0
 18 19  1  0
 18 31  1  0
 19 32  1  0
 20 33  1  0
 20 34  1  0
 20 35  1  0
 21 22  1  0
 21 36  1  0
 21 37  1  0
 22 23  1  0
 22 38  1  0
 22 39  1  0
 23 40  1  0
 23 41  1  0
 23 42  1  0
M  END
> <Name>
CHEMBL1172963

> <Clean Energy>
-3.12699

> <chembl_id>
CHEMBL1172963

> <chembl_pref_name>
None

> <efficacy>
0.35

> <Forcefield>
MMFF

> <ForcefieldBase>
MMFF

> <ForcefieldFFML>
<?xml version="1.0" encoding="UTF-8"?>
<!DOCTYPE ffml SYSTEM "Ffml.dtd">
<ffml version="1.0">
<forcefield name="MMFF" derivedFrom="MMFF" base="MMFF">
<atomTypes>
<atomType
name="C100"
element="C"
mass="12.011"
annotation=""/>
<atomType
name="N101"
element="N"
mass="14.007"
annotation=""/>
<atomType
name="O102"
element="O"
mass="16"
annotation=""/>
<atomType
name="S103"
element="S"
mass="32.066"
annotation=""/>
<atomType
name="H104"
element="H"
mass="1.008"
annotation=""/>
</atomTypes>
<parameters>
</parameters>
</forcefield>
</ffml>

> <Initial Potential Energy>
27.20553

> <Initial RMS Gradient>
29.64149

> <Minimization Criteria>
STEEPD> Minimization exiting with gradient tolerance ( 3.0000000) satisfied.

> <CHARMm Energy>
-51.33341

> <Potential Energy>
-51.33341

> <RMS Gradient>
0.19142

> <Bond Energy>
2.09409

> <Angle Energy>
11.25129

> <STRBend>
0.307

> <Dihedral Energy>
7.16331

> <OOPLane>
2.22947

> <Van der Waals Energy>
42.15478

> <Electrostatic Energy>
-116.53335

> <Hydrogen Bond Energy>
0

> <Solvation Free Energy>
0

> <HasGasteigerCharges>
true

> <REMARK99>
REMARK  99  MacroMolecule created from Mol2 file
REMARK  99  CHEMBL1172963
REMARK  99  PROTEIN
REMARK  99  GASTEIGER
REMARK  99
REMARK  99

$$$$
CHEMBL455126
  SciTegic05292516403D

 57 60  0  0  0  0            999 V2000
   -7.5457   -5.1800   -0.5988 C   0  0
   -7.9054   -6.4909   -0.8676 C   0  0
   -7.0317   -7.5154   -0.5135 C   0  0
   -6.3899   -4.7843   -0.0191 N   0  0
   -5.5728   -5.8079    0.3167 C   0  0
   -5.8233   -7.1622    0.1124 C   0  0
   -4.6913   -7.8784    0.5924 C   0  0
   -3.8415   -6.9569    1.2002 C   0  0
   -4.3313   -5.6941    0.9077 N   0  0
   -2.6071   -7.2004    2.0016 C   0  0
   -3.6592   -4.4232    1.1811 C   0  0
   -2.3500   -4.2976    0.4240 C   0  0
   -1.1128   -4.3078    1.0975 C   0  0
    0.1037   -4.2534    0.4002 C   0  0
    0.0794   -4.1482   -0.9886 C   0  0
   -1.1424   -4.1118   -1.6695 C   0  0
   -2.3479   -4.1900   -0.9715 C   0  0
   -4.4613   -9.3130    0.4830 C   0  0
   -5.3106  -10.1462    0.7843 O   0  0
   -3.1498   -9.7535   -0.0651 C   0  0
   -2.5632  -10.9236    0.4248 C   0  0
   -1.3149  -11.3341   -0.0545 C   0  0
   -0.6572  -10.5810   -1.0299 C   0  0
   -1.2615   -9.4306   -1.5396 C   0  0
   -2.5036   -9.0153   -1.0648 C   0  0
    1.2217   -4.3272    1.1891 O   0  0
    2.5256   -4.2452    0.5789 C   0  0  2  0  0  0
    3.5391   -4.9085    1.5254 C   0  0
    2.9176   -2.7865    0.3821 C   0  0
    2.9520   -5.5411    2.5725 O   0  0
    4.7564   -4.8840    1.3768 O   0  0
    0.5649  -10.8573   -1.5723 O   0  0
    1.2928  -11.9275   -0.9868 C   0  0
   -8.2223   -4.3703   -0.8650 H   0  0
   -8.8576   -6.7138   -1.3387 H   0  0
   -7.2893   -8.5554   -0.6975 H   0  0
   -2.4935   -6.4616    2.8001 H   0  0
   -1.7190   -7.1782    1.3638 H   0  0
   -2.6484   -8.1806    2.4884 H   0  0
   -4.3226   -3.5971    0.9039 H   0  0
   -3.5085   -4.3690    2.2652 H   0  0
   -1.0923   -4.3805    2.1832 H   0  0
    0.9845   -4.0885   -1.5833 H   0  0
   -1.1543   -4.0287   -2.7541 H   0  0
   -3.2875   -4.1729   -1.5228 H   0  0
   -3.0678  -11.5091    1.1898 H   0  0
   -0.8856  -12.2445    0.3523 H   0  0
   -0.7566   -8.8515   -2.3091 H   0  0
   -2.9514   -8.1167   -1.4821 H   0  0
    2.5667   -4.8268   -0.3484 H   0  0
    3.9214   -2.6978   -0.0459 H   0  0
    2.9076   -2.2498    1.3379 H   0  0
    2.2161   -2.2682   -0.2781 H   0  0
    1.9819   -5.4025    2.5348 H   0  0
    2.2695  -11.9756   -1.4780 H   0  0
    0.7893  -12.8849   -1.1563 H   0  0
    1.4660  -11.7551    0.0808 H   0  0
  1  2  2  0
  1 34  1  0
  2  3  1  0
  2 35  1  0
  3  6  2  0
  3 36  1  0
  4  1  1  0
  5  4  2  0
  5  6  1  0
  6  7  1  0
  7  8  2  0
  7 18  1  0
  8  9  1  0
  8 10  1  0
  9  5  1  0
  9 11  1  0
 10 37  1  0
 10 38  1  0
 10 39  1  0
 11 12  1  0
 11 40  1  0
 11 41  1  0
 12 13  2  0
 13 14  1  0
 13 42  1  0
 14 15  2  0
 14 26  1  0
 15 16  1  0
 15 43  1  0
 16 17  2  0
 16 44  1  0
 17 12  1  0
 17 45  1  0
 18 19  2  0
 18 20  1  0
 20 21  2  0
 21 22  1  0
 21 46  1  0
 22 23  2  0
 22 47  1  0
 23 24  1  0
 23 32  1  0
 24 25  2  0
 24 48  1  0
 25 20  1  0
 25 49  1  0
 26 27  1  0
 27 28  1  0
 27 29  1  0
 27 50  1  0
 28 30  1  0
 28 31  2  0
 29 51  1  0
 29 52  1  0
 29 53  1  0
 30 54  1  0
 32 33  1  0
 33 55  1  0
 33 56  1  0
 33 57  1  0
M  END
> <Name>
CHEMBL455126

> <Clean Energy>
89.578102

> <chembl_id>
CHEMBL455126

> <chembl_pref_name>
None

> <efficacy>
0.32

> <Forcefield>
MMFF

> <ForcefieldBase>
MMFF

> <ForcefieldFFML>
<?xml version="1.0" encoding="UTF-8"?>
<!DOCTYPE ffml SYSTEM "Ffml.dtd">
<ffml version="1.0">
<forcefield name="MMFF" derivedFrom="MMFF" base="MMFF">
<atomTypes>
<atomType
name="C100"
element="C"
mass="12.011"
annotation=""/>
<atomType
name="N101"
element="N"
mass="14.007"
annotation=""/>
<atomType
name="O102"
element="O"
mass="16"
annotation=""/>
<atomType
name="H103"
element="H"
mass="1.008"
annotation=""/>
</atomTypes>
<parameters>
</parameters>
</forcefield>
</ffml>

> <Initial Potential Energy>
321.60491

> <Initial RMS Gradient>
39.47851

> <Minimization Criteria>
STEEPD> Minimization exiting with gradient tolerance ( 3.0000000) satisfied.

> <CHARMm Energy>
113.95991

> <Potential Energy>
113.95991

> <RMS Gradient>
0.04425

> <Bond Energy>
6.41751

> <Angle Energy>
18.78676

> <STRBend>
0.97486

> <Dihedral Energy>
8.47318

> <OOPLane>
0.04197

> <Van der Waals Energy>
64.36119

> <Electrostatic Energy>
14.90442

> <Hydrogen Bond Energy>
0

> <Solvation Free Energy>
0

> <HasGasteigerCharges>
true

> <REMARK99>
REMARK  99  MacroMolecule created from Mol2 file
REMARK  99  CHEMBL455126
REMARK  99  PROTEIN
REMARK  99  GASTEIGER
REMARK  99
REMARK  99

$$$$
CHEMBL524063
  SciTegic05292516403D

 59 61  0  0  0  0            999 V2000
    5.0247    8.7821   -1.0917 O   0  0
    4.3125    7.6518   -1.3090 C   0  0
    4.8764    6.5674   -1.2608 O   0  0
    2.8310    7.8998   -1.5419 C   0  0
    2.1346    6.7680   -2.0843 O   0  0
    1.6950    5.8853   -1.1265 C   0  0
    2.4457    4.7281   -0.9247 C   0  0
    2.0456    3.7802    0.0175 C   0  0
    0.4750    6.0668   -0.4520 C   0  0
   -0.3984    7.2488   -0.7831 C   0  0
    0.0832    5.1233    0.5420 C   0  0
   -1.1876    5.3205    1.3391 C   0  0
    0.8772    3.9675    0.7646 C   0  0
    0.4988    2.7847    2.0619 S   0  0
    0.1817    1.2291    1.2270 C   0  0
   -0.5198    1.1858    0.0169 C   0  0
   -0.8851   -0.0451   -0.5607 C   0  0
    0.5257    0.0025    1.8309 C   0  0
    1.1997   -0.0535    3.0327 O   0  0
    2.6223    0.1377    2.8724 C   0  0
    3.2518   -1.1281    2.4535 C   0  0
    3.7011   -2.1788    2.0841 C   0  0
    0.1202   -1.2261    1.2771 C   0  0
   -0.5892   -1.2666    0.0696 C   0  0
   -0.9727   -2.5936   -0.5719 C   0  0
   -1.6116   -3.4609    0.3714 O   0  0
   -2.0749   -4.6660   -0.0904 C   0  0
   -2.7672   -5.4286    0.8544 C   0  0
   -3.3086   -6.6783    0.5207 C   0  0
   -1.9181   -5.1792   -1.3782 C   0  0
   -2.4609   -6.4318   -1.7166 C   0  0
   -3.1727   -7.1949   -0.7760 C   0  0
   -3.7616   -8.5417   -1.1469 C   0  0
   -4.0458   -8.6536   -2.4788 F   0  0
   -4.9364   -8.8144   -0.5069 F   0  0
   -2.9366   -9.5883   -0.8614 F   0  0
    5.8885    8.3818   -0.8462 H   0  0
    2.3770    8.2449   -0.6057 H   0  0
    2.7407    8.6995   -2.2845 H   0  0
    3.3561    4.5627   -1.4959 H   0  0
    2.6647    2.8991    0.1713 H   0  0
   -1.4303    6.9266   -0.9578 H   0  0
   -0.0831    7.7581   -1.6988 H   0  0
   -0.3713    7.9775    0.0330 H   0  0
   -1.9404    4.5888    1.0286 H   0  0
   -1.6201    6.3164    1.2168 H   0  0
   -0.9936    5.2171    2.4117 H   0  0
   -0.8130    2.1085   -0.4828 H   0  0
   -1.4267   -0.0313   -1.5050 H   0  0
    2.8537    0.9415    2.1650 H   0  0
    3.0134    0.4409    3.8492 H   0  0
    4.0262   -3.1438    1.7621 H   0  0
    0.3572   -2.1552    1.7974 H   0  0
   -1.6578   -2.3992   -1.4063 H   0  0
   -0.0559   -3.0604   -0.9527 H   0  0
   -2.8905   -5.0387    1.8631 H   0  0
   -3.8464   -7.2390    1.2834 H   0  0
   -1.3812   -4.6341   -2.1481 H   0  0
   -2.3308   -6.8073   -2.7317 H   0  0
  1 37  1  0
  2  1  1  0
  2  3  2  0
  4  2  1  0
  4  5  1  0
  4 38  1  0
  4 39  1  0
  6  5  1  0
  7  6  1  0
  7  8  2  0
  7 40  1  0
  8 41  1  0
  9  6  2  0
  9 10  1  0
 10 42  1  0
 10 43  1  0
 10 44  1  0
 11  9  1  0
 11 12  1  0
 11 13  2  0
 12 45  1  0
 12 46  1  0
 12 47  1  0
 13  8  1  0
 13 14  1  0
 15 14  1  0
 15 16  1  0
 15 18  2  0
 16 17  2  0
 16 48  1  0
 17 24  1  0
 17 49  1  0
 18 19  1  0
 18 23  1  0
 20 19  1  0
 20 50  1  0
 20 51  1  0
 21 20  1  0
 21 22  3  0
 22 52  1  0
 23 24  2  0
 23 53  1  0
 24 25  1  0
 25 26  1  0
 25 54  1  0
 25 55  1  0
 27 26  1  0
 27 28  1  0
 27 30  2  0
 28 29  2  0
 28 56  1  0
 29 32  1  0
 29 57  1  0
 30 31  1  0
 30 58  1  0
 31 32  2  0
 31 59  1  0
 32 33  1  0
 33 34  1  0
 33 35  1  0
 33 36  1  0
M  END
> <Name>
CHEMBL524063

> <Clean Energy>
190.154007

> <chembl_id>
CHEMBL524063

> <chembl_pref_name>
None

> <efficacy>
0.04

> <Forcefield>
MMFF

> <ForcefieldBase>
MMFF

> <ForcefieldFFML>
<?xml version="1.0" encoding="UTF-8"?>
<!DOCTYPE ffml SYSTEM "Ffml.dtd">
<ffml version="1.0">
<forcefield name="MMFF" derivedFrom="MMFF" base="MMFF">
<atomTypes>
<atomType
name="O100"
element="O"
mass="16"
annotation=""/>
<atomType
name="C101"
element="C"
mass="12.011"
annotation=""/>
<atomType
name="S102"
element="S"
mass="32.066"
annotation=""/>
<atomType
name="F103"
element="F"
mass="18.998"
annotation=""/>
<atomType
name="H104"
element="H"
mass="1.008"
annotation=""/>
</atomTypes>
<parameters>
</parameters>
</forcefield>
</ffml>

> <Initial Potential Energy>
528.94105

> <Initial RMS Gradient>
39.6419

> <Minimization Criteria>
CONJUG> Minimization exiting with gradient tolerance ( 0.0100000) satisfied.

> <CHARMm Energy>
118.9712

> <Potential Energy>
118.9712

> <RMS Gradient>
0.00984

> <Bond Energy>
9.12079

> <Angle Energy>
20.72671

> <STRBend>
1.18914

> <Dihedral Energy>
21.28731

> <OOPLane>
0.24416

> <Van der Waals Energy>
65.21756

> <Electrostatic Energy>
1.18552

> <Hydrogen Bond Energy>
0

> <Solvation Free Energy>
0

> <HasGasteigerCharges>
true

> <REMARK99>
REMARK  99  MacroMolecule created from Mol2 file
REMARK  99  CHEMBL524063
REMARK  99  PROTEIN
REMARK  99  GASTEIGER
REMARK  99
REMARK  99

$$$$
CHEMBL574386
  SciTegic05292516403D

 48 50  0  0  0  0            999 V2000
   16.7119   -2.6855   -0.2323 C   0  0
   17.7641   -3.5781   -0.4762 C   0  0
   19.0762   -3.2362   -0.1463 C   0  0
   19.3435   -1.9931    0.4203 C   0  0
   18.2952   -1.1117    0.6933 C   0  0
   16.9849   -1.4516    0.3643 C   0  0
   20.5776   -1.5428    0.7865 O   0  0
   21.7216   -2.0687    0.0720 C   0  0  1  0  0  0
   22.5906   -0.8426   -0.2313 C   0  0
   22.4591   -3.0460    0.9974 C   0  0
   23.4333   -4.0445    0.4039 C   0  0
   23.9792   -5.0144    1.2658 C   0  0
   24.9070   -5.9506    0.8052 C   0  0
   25.3024   -5.9337   -0.5282 C   0  0
   24.7776   -4.9799   -1.3958 C   0  0
   23.8466   -4.0436   -0.9345 C   0  0
   21.9906    0.3364    0.0820 O   0  0
   23.7076   -0.8774   -0.7265 O   0  0
   15.2951   -3.0770   -0.5589 C   0  0
   14.6327   -3.7792    0.6283 C   0  0
   13.2906   -4.3360    0.2328 C   0  0
   12.1216   -3.6027    0.4543 C   0  0
   10.8966   -4.1076    0.0302 C   0  0
   10.8333   -5.3422   -0.6153 C   0  0
   11.9958   -6.0773   -0.8405 C   0  0
   13.2217   -5.5757   -0.4191 C   0  0
   17.5644   -4.5529   -0.9171 H   0  0
   19.8582   -3.9676   -0.3263 H   0  0
   18.4931   -0.1511    1.1627 H   0  0
   16.1794   -0.7523    0.5801 H   0  0
   21.4323   -2.4940   -0.8950 H   0  0
   23.0000   -2.4699    1.7612 H   0  0
   21.7040   -3.6277    1.5445 H   0  0
   23.6824   -5.0396    2.3129 H   0  0
   25.3368   -6.6819    1.4868 H   0  0
   26.0361   -6.6511   -0.8878 H   0  0
   25.1113   -4.9527   -2.4312 H   0  0
   23.4759   -3.3103   -1.6455 H   0  0
   21.0999    0.1504    0.4575 H   0  0
   14.7204   -2.1872   -0.8477 H   0  0
   15.3002   -3.7238   -1.4463 H   0  0
   15.2624   -4.5976    1.0020 H   0  0
   14.5192   -3.0849    1.4710 H   0  0
   12.1559   -2.6355    0.9497 H   0  0
    9.9858   -3.5400    0.2019 H   0  0
    9.8738   -5.7326   -0.9442 H   0  0
   11.9351   -7.0389   -1.3447 H   0  0
   14.1365   -6.1362   -0.6090 H   0  0
  1  2  2  0
  1 19  1  0
  2  3  1  0
  2 27  1  0
  3  4  2  0
  3 28  1  0
  4  5  1  0
  4  7  1  0
  5  6  2  0
  5 29  1  0
  6  1  1  0
  6 30  1  0
  7  8  1  0
  8  9  1  0
  8 10  1  0
  8 31  1  0
  9 17  1  0
  9 18  2  0
 10 11  1  0
 10 32  1  0
 10 33  1  0
 11 12  2  0
 12 13  1  0
 12 34  1  0
 13 14  2  0
 13 35  1  0
 14 15  1  0
 14 36  1  0
 15 16  2  0
 15 37  1  0
 16 11  1  0
 16 38  1  0
 17 39  1  0
 19 20  1  0
 19 40  1  0
 19 41  1  0
 20 42  1  0
 20 43  1  0
 21 20  1  0
 21 22  2  0
 22 23  1  0
 22 44  1  0
 23 24  2  0
 23 45  1  0
 24 25  1  0
 24 46  1  0
 25 26  2  0
 25 47  1  0
 26 21  1  0
 26 48  1  0
M  END
> <Name>
CHEMBL574386

> <Clean Energy>
10.9457

> <chembl_id>
CHEMBL574386

> <chembl_pref_name>
None

> <efficacy>
0.39

> <Forcefield>
MMFF

> <ForcefieldBase>
MMFF

> <ForcefieldFFML>
<?xml version="1.0" encoding="UTF-8"?>
<!DOCTYPE ffml SYSTEM "Ffml.dtd">
<ffml version="1.0">
<forcefield name="MMFF" derivedFrom="MMFF" base="MMFF">
<atomTypes>
<atomType
name="C100"
element="C"
mass="12.011"
annotation=""/>
<atomType
name="O101"
element="O"
mass="16"
annotation=""/>
<atomType
name="H102"
element="H"
mass="1.008"
annotation=""/>
</atomTypes>
<parameters>
</parameters>
</forcefield>
</ffml>

> <Initial Potential Energy>
151.36869

> <Initial RMS Gradient>
29.71688

> <Minimization Criteria>
CONJUG> Minimization exiting with gradient tolerance ( 0.0100000) satisfied.

> <CHARMm Energy>
72.53473

> <Potential Energy>
72.53473

> <RMS Gradient>
0.00843

> <Bond Energy>
5.43853

> <Angle Energy>
11.04354

> <STRBend>
0.22087

> <Dihedral Energy>
0.80789

> <OOPLane>
0.0594

> <Van der Waals Energy>
58.39883

> <Electrostatic Energy>
-3.43431

> <Hydrogen Bond Energy>
0

> <Solvation Free Energy>
0

> <HasGasteigerCharges>
true

> <REMARK99>
REMARK  99  MacroMolecule created from Mol2 file
REMARK  99  CHEMBL574386
REMARK  99  PROTEIN
REMARK  99  GASTEIGER
REMARK  99
REMARK  99

$$$$
CHEMBL1171046
  SciTegic05292516403D

 40 42  0  0  0  0            999 V2000
    2.7453  -14.3714    0.2598 C   0  0
    2.8496  -13.0672    0.5179 N   0  0
    4.0941  -12.5512    0.6047 C   0  0
    5.2324  -13.3202    0.4566 C   0  0
    5.0304  -14.6698    0.2049 C   0  0
    3.7885  -15.1863    0.0892 N   0  0
    6.5781  -12.7359    0.4842 C   0  0
    7.4255  -13.4636    1.2410 O   0  0
    6.9468  -11.7263   -0.0827 O   0  0
    1.1004  -15.0200    0.1212 S   0  0
    1.4644  -16.7793   -0.0902 C   0  0
    6.1159  -15.5345   -0.0271 N   0  0
    5.9071  -16.9048   -0.4727 C   0  0
    7.0085  -17.9212   -0.3623 C   0  0
    5.7972  -18.0295    0.5172 C   0  0
    4.1125  -10.8154    1.0099 S   0  0
    3.1696  -10.2118   -0.4236 C   0  0
    2.8243   -8.7543   -0.2781 C   0  0
    1.6109   -8.3761    0.3169 C   0  0
    1.2874   -7.0295    0.4645 C   0  0
    2.1760   -6.0512    0.0257 C   0  0
    3.3882   -6.4130   -0.5587 C   0  0
    3.7140   -7.7598   -0.7088 C   0  0
    8.2656  -12.9527    1.2154 H   0  0
    0.5226  -17.3289   -0.1727 H   0  0
    2.0133  -17.1702    0.7713 H   0  0
    2.0403  -16.9514   -1.0039 H   0  0
    6.9547  -15.3004    0.5034 H   0  0
    5.2808  -16.9652   -1.3606 H   0  0
    7.1160  -18.6350   -1.1705 H   0  0
    7.9435  -17.6234    0.0958 H   0  0
    5.8981  -17.7883    1.5685 H   0  0
    5.0762  -18.8101    0.3068 H   0  0
    3.7591  -10.3670   -1.3347 H   0  0
    2.2436  -10.7848   -0.5470 H   0  0
    0.9141   -9.1327    0.6720 H   0  0
    0.3455   -6.7426    0.9245 H   0  0
    1.9251   -5.0024    0.1448 H   0  0
    4.0795   -5.6424   -0.8921 H   0  0
    4.6676   -8.0291   -1.1574 H   0  0
  1  2  1  0
  1  6  2  0
  1 10  1  0
  2  3  2  0
  3  4  1  0
  3 16  1  0
  4  5  2  0
  4  7  1  0
  5  6  1  0
  5 12  1  0
  7  8  1  0
  7  9  2  0
  8 24  1  0
 10 11  1  0
 11 25  1  0
 11 26  1  0
 11 27  1  0
 12 13  1  0
 12 28  1  0
 13 14  1  0
 13 15  1  0
 13 29  1  0
 14 15  1  0
 14 30  1  0
 14 31  1  0
 15 32  1  0
 15 33  1  0
 16 17  1  0
 17 18  1  0
 17 34  1  0
 17 35  1  0
 18 19  1  0
 18 23  2  0
 19 20  2  0
 19 36  1  0
 20 21  1  0
 20 37  1  0
 21 22  2  0
 21 38  1  0
 22 23  1  0
 22 39  1  0
 23 40  1  0
M  END
> <Name>
CHEMBL1171046

> <Clean Energy>
21.4944

> <chembl_id>
CHEMBL1171046

> <chembl_pref_name>
None

> <efficacy>
0.25

> <Forcefield>
MMFF

> <ForcefieldBase>
MMFF

> <ForcefieldFFML>
<?xml version="1.0" encoding="UTF-8"?>
<!DOCTYPE ffml SYSTEM "Ffml.dtd">
<ffml version="1.0">
<forcefield name="MMFF" derivedFrom="MMFF" base="MMFF">
<atomTypes>
<atomType
name="C100"
element="C"
mass="12.011"
annotation=""/>
<atomType
name="N101"
element="N"
mass="14.007"
annotation=""/>
<atomType
name="O102"
element="O"
mass="16"
annotation=""/>
<atomType
name="S103"
element="S"
mass="32.066"
annotation=""/>
<atomType
name="H104"
element="H"
mass="1.008"
annotation=""/>
</atomTypes>
<parameters>
</parameters>
</forcefield>
</ffml>

> <Initial Potential Energy>
41.41695

> <Initial RMS Gradient>
31.43374

> <Minimization Criteria>
CONJUG> Minimization exiting with gradient tolerance ( 0.0100000) satisfied.

> <CHARMm Energy>
-54.26474

> <Potential Energy>
-54.26474

> <RMS Gradient>
0.00984

> <Bond Energy>
1.9681

> <Angle Energy>
10.71142

> <STRBend>
0.13097

> <Dihedral Energy>
18.43624

> <OOPLane>
1.07019

> <Van der Waals Energy>
37.13086

> <Electrostatic Energy>
-123.71253

> <Hydrogen Bond Energy>
0

> <Solvation Free Energy>
0

> <HasGasteigerCharges>
true

> <REMARK99>
REMARK  99  MacroMolecule created from Mol2 file
REMARK  99  CHEMBL1171046
REMARK  99  PROTEIN
REMARK  99  GASTEIGER
REMARK  99
REMARK  99

$$$$
CHEMBL223379
  SciTegic05292516403D

 69 72  0  0  0  0            999 V2000
   -8.2764   -3.1559    0.5869 C   0  0
   -7.3399   -4.0864    1.0285 C   0  0
   -5.9765   -3.8473    0.8363 C   0  0
   -5.5327   -2.6771    0.2003 C   0  0
   -6.4900   -1.7512   -0.2405 C   0  0
   -7.8540   -1.9896   -0.0477 C   0  0
   -4.1011   -2.4611    0.0189 C   0  0
   -3.0835   -3.1922    0.4421 N   0  0
   -1.9652   -2.5438   -0.0287 C   0  0
   -2.3482   -1.4176   -0.7223 C   0  0
   -3.7122   -1.3555   -0.6997 O   0  0
   -1.6386   -0.3464   -1.4421 C   0  0
   -0.6111   -3.0847    0.2346 C   0  0
   -0.0426   -2.6033    1.5666 C   0  0
    1.1797   -3.2981    1.8588 O   0  0
    2.2815   -2.6699    1.3486 C   0  0
    2.9699   -3.2969    0.3128 C   0  0
    4.1408   -2.7317   -0.2285 C   0  0
    4.6374   -1.5294    0.3318 C   0  0
    3.9319   -0.9234    1.3905 C   0  0
    2.7647   -1.4921    1.9005 C   0  0
    4.8130   -3.4708   -1.3642 C   0  0
    5.9920   -4.1612   -0.9111 N   0  0
    5.9138   -0.8578   -0.1318 C   0  0
    5.7379   -0.0778   -1.4253 C   0  0
    7.0672    0.4116   -1.9210 C   0  0
    7.8036   -0.5278   -2.5553 O   0  0
    7.4818    1.5529   -1.7669 O   0  0
    7.2422   -3.8829   -1.3882 C   0  0
    8.2126   -4.5581   -0.7019 N   0  0
    7.4773   -3.0744   -2.2816 O   0  0
    9.6194   -4.2456   -0.8388 C   0  0
    9.9926   -3.1518    0.1296 C   0  0
   10.1893   -3.4345    1.4895 C   0  0
   10.4750   -2.4072    2.3909 C   0  0
   10.5595   -1.0894    1.9446 C   0  0
   10.3712   -0.7974    0.5957 C   0  0
   10.0929   -1.8234   -0.3076 C   0  0
   -9.3361   -3.3401    0.7382 H   0  0
   -7.6656   -4.9979    1.5227 H   0  0
   -5.2555   -4.5840    1.1869 H   0  0
   -6.1853   -0.8319   -0.7357 H   0  0
   -8.5857   -1.2635   -0.3929 H   0  0
   -1.7605   -0.4684   -2.5226 H   0  0
   -0.5683   -0.3583   -1.2145 H   0  0
   -2.0325    0.6348   -1.1593 H   0  0
   -0.6470   -4.1815    0.2286 H   0  0
    0.0667   -2.8123   -0.5832 H   0  0
    0.0807   -1.5124    1.5796 H   0  0
   -0.7389   -2.8458    2.3786 H   0  0
    2.5795   -4.2362   -0.0740 H   0  0
    4.3021   -0.0034    1.8410 H   0  0
    2.2536   -1.0246    2.7370 H   0  0
    4.1428   -4.2357   -1.7735 H   0  0
    5.0393   -2.7934   -2.1906 H   0  0
    5.8947   -4.8320   -0.1658 H   0  0
    6.2730   -0.1708    0.6472 H   0  0
    6.7117   -1.5994   -0.2067 H   0  0
    5.2616   -0.6545   -2.2231 H   0  0
    5.0901    0.7926   -1.2636 H   0  0
    7.4079   -1.4395   -2.5314 H   0  0
    7.9261   -5.1516    0.0602 H   0  0
   10.1900   -5.1553   -0.6231 H   0  0
    9.8394   -3.9503   -1.8708 H   0  0
   10.1355   -4.4575    1.8538 H   0  0
   10.6500   -2.6341    3.4399 H   0  0
   10.7946   -0.2907    2.6437 H   0  0
   10.4582    0.2275    0.2399 H   0  0
    9.9643   -1.5763   -1.3604 H   0  0
  1  2  2  0
  1 39  1  0
  2  3  1  0
  2 40  1  0
  3  4  2  0
  3 41  1  0
  4  5  1  0
  4  7  1  0
  5  6  2  0
  5 42  1  0
  6  1  1  0
  6 43  1  0
  7  8  2  0
  8  9  1  0
  9 10  2  0
  9 13  1  0
 10 11  1  0
 10 12  1  0
 11  7  1  0
 12 44  1  0
 12 45  1  0
 12 46  1  0
 13 14  1  0
 13 47  1  0
 13 48  1  0
 14 15  1  0
 14 49  1  0
 14 50  1  0
 15 16  1  0
 16 17  2  0
 17 18  1  0
 17 51  1  0
 18 19  2  0
 18 22  1  0
 19 20  1  0
 19 24  1  0
 20 21  2  0
 20 52  1  0
 21 16  1  0
 21 53  1  0
 22 23  1  0
 22 54  1  0
 22 55  1  0
 23 29  1  0
 23 56  1  0
 24 25  1  0
 24 57  1  0
 24 58  1  0
 25 26  1  0
 25 59  1  0
 25 60  1  0
 26 27  1  0
 26 28  2  0
 27 61  1  0
 29 30  1  0
 29 31  2  0
 30 32  1  0
 30 62  1  0
 32 33  1  0
 32 63  1  0
 32 64  1  0
 33 34  2  0
 34 35  1  0
 34 65  1  0
 35 36  2  0
 35 66  1  0
 36 37  1  0
 36 67  1  0
 37 38  2  0
 37 68  1  0
 38 33  1  0
 38 69  1  0
M  END
> <Name>
CHEMBL223379

> <Clean Energy>
46.075001

> <chembl_id>
CHEMBL223379

> <chembl_pref_name>
None

> <efficacy>
0.24

> <Forcefield>
MMFF

> <ForcefieldBase>
MMFF

> <ForcefieldFFML>
<?xml version="1.0" encoding="UTF-8"?>
<!DOCTYPE ffml SYSTEM "Ffml.dtd">
<ffml version="1.0">
<forcefield name="MMFF" derivedFrom="MMFF" base="MMFF">
<atomTypes>
<atomType
name="C100"
element="C"
mass="12.011"
annotation=""/>
<atomType
name="N101"
element="N"
mass="14.007"
annotation=""/>
<atomType
name="O102"
element="O"
mass="16"
annotation=""/>
<atomType
name="H103"
element="H"
mass="1.008"
annotation=""/>
</atomTypes>
<parameters>
</parameters>
</forcefield>
</ffml>

> <Initial Potential Energy>
121.60537

> <Initial RMS Gradient>
36.20231

> <Minimization Criteria>
STEEPD> Minimization exiting with gradient tolerance ( 3.0000000) satisfied.

> <CHARMm Energy>
-74.30796

> <Potential Energy>
-74.30796

> <RMS Gradient>
0.02202

> <Bond Energy>
6.33316

> <Angle Energy>
9.44245

> <STRBend>
0.08463

> <Dihedral Energy>
4.28343

> <OOPLane>
0.28768

> <Van der Waals Energy>
61.80221

> <Electrostatic Energy>
-156.54151

> <Hydrogen Bond Energy>
0

> <Solvation Free Energy>
0

> <HasGasteigerCharges>
true

> <REMARK99>
REMARK  99  MacroMolecule created from Mol2 file
REMARK  99  CHEMBL223379
REMARK  99  PROTEIN
REMARK  99  GASTEIGER
REMARK  99
REMARK  99

$$$$
CHEMBL1075895
  SciTegic05292516403D

 67 71  0  0  0  0            999 V2000
   17.2137  -14.0995   -0.2999 C   0  0
   17.4927  -15.4611   -0.4775 C   0  0
   18.8122  -15.9302   -0.4315 C   0  0
   19.8555  -15.0419   -0.1875 C   0  0
   19.5934  -13.6820   -0.0371 C   0  0
   18.2751  -13.1998   -0.0855 C   0  0
   18.0197  -11.7265    0.0812 C   0  0
   15.9595  -13.5389   -0.3372 O   0  0
   14.8521  -14.4384   -0.4251 C   0  0
   13.5444  -13.6671   -0.3916 C   0  0
   13.6804  -12.3171   -0.4169 O   0  0
   12.4420  -14.2001   -0.3656 O   0  0
   21.1600  -15.4637   -0.1821 O   0  0
   21.4304  -16.3198    0.9383 C   0  0
   22.7990  -16.8764    0.7504 C   0  0
   22.9059  -18.2387    0.7870 O   0  0
   24.2458  -18.4966    0.6232 C   0  0
   24.8886  -17.2816    0.4752 C   0  0
   23.9543  -16.2616    0.5918 N   0  0
   26.2812  -16.9873    0.2132 C   0  0
   27.2578  -17.8897   -0.1445 C   0  0
   28.0021  -15.2980    0.0048 N   0  0
   26.7338  -15.6859    0.2661 C   0  0
   24.5662  -19.9069    0.6691 C   0  0
   23.8844  -20.7951   -0.1739 C   0  0
   24.1121  -22.1692   -0.1032 C   0  0
   25.0458  -22.6694    0.8026 C   0  0
   25.7215  -21.7895    1.6534 C   0  0
   25.4861  -20.4143    1.5895 C   0  0
   25.3670  -23.9848    0.9662 O   0  0
   24.9760  -24.8595   -0.0794 C   0  0
   25.5241  -26.0758    0.1466 F   0  0
   23.6338  -25.0257   -0.1194 F   0  0
   25.4249  -24.4112   -1.2733 F   0  0
   28.8854  -16.2603   -0.3240 C   0  0
   28.5494  -17.5598   -0.3986 N   0  0
   30.1856  -15.8854   -0.6067 N   0  0
   31.2310  -16.9095   -0.6300 C   0  0
   32.5229  -16.3565   -1.2758 C   0  0
   32.9373  -15.1092   -0.6965 O   0  0
   31.9085  -14.1297   -0.8898 C   0  0
   30.5991  -14.5381   -0.1991 C   0  0
   16.7200  -16.1965   -0.6722 H   0  0
   19.0289  -16.9810   -0.6117 H   0  0
   20.4194  -12.9915    0.1138 H   0  0
   18.9486  -11.1731    0.2556 H   0  0
   17.3631  -11.5505    0.9394 H   0  0
   17.5542  -11.3194   -0.8223 H   0  0
   14.8833  -14.9792   -1.3769 H   0  0
   14.8527  -15.1177    0.4342 H   0  0
   14.6399  -12.0997   -0.4212 H   0  0
   21.4023  -15.7312    1.8627 H   0  0
   20.7068  -17.1400    1.0104 H   0  0
   27.0566  -18.9482   -0.2686 H   0  0
   26.0674  -14.8692    0.5269 H   0  0
   23.1627  -20.4206   -0.8954 H   0  0
   23.5297  -22.8111   -0.7611 H   0  0
   26.4349  -22.1766    2.3778 H   0  0
   26.0126  -19.7563    2.2779 H   0  0
   31.4490  -17.2131    0.4013 H   0  0
   30.9229  -17.7971   -1.1945 H   0  0
   33.3376  -17.0746   -1.1379 H   0  0
   32.3852  -16.2175   -2.3551 H   0  0
   32.2671  -13.1836   -0.4721 H   0  0
   31.7544  -13.9793   -1.9653 H   0  0
   29.8469  -13.7814   -0.4510 H   0  0
   30.7475  -14.5301    0.8880 H   0  0
  1  2  2  0
  1  8  1  0
  2  3  1  0
  2 43  1  0
  3  4  2  0
  3 44  1  0
  4  5  1  0
  4 13  1  0
  5  6  2  0
  5 45  1  0
  6  1  1  0
  6  7  1  0
  7 46  1  0
  7 47  1  0
  7 48  1  0
  8  9  1  0
  9 10  1  0
  9 49  1  0
  9 50  1  0
 10 11  1  0
 10 12  2  0
 11 51  1  0
 13 14  1  0
 14 15  1  0
 14 52  1  0
 14 53  1  0
 15 16  1  0
 16 17  1  0
 17 18  2  0
 17 24  1  0
 18 19  1  0
 18 20  1  0
 19 15  2  0
 20 21  2  0
 21 36  1  0
 21 54  1  0
 22 23  2  0
 23 20  1  0
 23 55  1  0
 24 25  2  0
 25 26  1  0
 25 56  1  0
 26 27  2  0
 26 57  1  0
 27 28  1  0
 27 30  1  0
 28 29  2  0
 28 58  1  0
 29 24  1  0
 29 59  1  0
 30 31  1  0
 31 32  1  0
 31 33  1  0
 31 34  1  0
 35 22  1  0
 35 36  2  0
 35 37  1  0
 37 38  1  0
 37 42  1  0
 38 39  1  0
 38 60  1  0
 38 61  1  0
 39 40  1  0
 39 62  1  0
 39 63  1  0
 40 41  1  0
 41 42  1  0
 41 64  1  0
 41 65  1  0
 42 66  1  0
 42 67  1  0
M  END
> <Name>
CHEMBL1075895

> <Clean Energy>
52.482399

> <chembl_id>
CHEMBL1075895

> <chembl_pref_name>
None

> <efficacy>
0.27

> <Forcefield>
MMFF

> <ForcefieldBase>
MMFF

> <ForcefieldFFML>
<?xml version="1.0" encoding="UTF-8"?>
<!DOCTYPE ffml SYSTEM "Ffml.dtd">
<ffml version="1.0">
<forcefield name="MMFF" derivedFrom="MMFF" base="MMFF">
<atomTypes>
<atomType
name="C100"
element="C"
mass="12.011"
annotation=""/>
<atomType
name="O101"
element="O"
mass="16"
annotation=""/>
<atomType
name="N102"
element="N"
mass="14.007"
annotation=""/>
<atomType
name="F103"
element="F"
mass="18.998"
annotation=""/>
<atomType
name="H104"
element="H"
mass="1.008"
annotation=""/>
</atomTypes>
<parameters>
</parameters>
</forcefield>
</ffml>

> <Initial Potential Energy>
924.5984

> <Initial RMS Gradient>
491.26293

> <Minimization Criteria>
STEEPD> Minimization exiting with gradient tolerance ( 3.0000000) satisfied.

> <CHARMm Energy>
65.42139

> <Potential Energy>
65.42139

> <RMS Gradient>
0.04021

> <Bond Energy>
5.74383

> <Angle Energy>
30.87267

> <STRBend>
0.3351

> <Dihedral Energy>
11.01145

> <OOPLane>
1.52954

> <Van der Waals Energy>
77.17087

> <Electrostatic Energy>
-61.24208

> <Hydrogen Bond Energy>
0

> <Solvation Free Energy>
0

> <HasGasteigerCharges>
true

> <REMARK99>
REMARK  99  MacroMolecule created from Mol2 file
REMARK  99  CHEMBL1075895
REMARK  99  PROTEIN
REMARK  99  GASTEIGER
REMARK  99
REMARK  99

$$$$
CHEMBL2312703
  SciTegic05292516403D

 51 53  0  0  0  0            999 V2000
    6.2842  -16.2576   -1.8948 C   0  0
    5.6968  -17.4497   -1.4921 C   0  0
    6.3793  -18.2833   -0.6056 C   0  0
    7.6638  -17.9459   -0.1100 C   0  0
    8.2602  -16.7240   -0.5151 C   0  0
    7.5479  -15.9009   -1.4109 C   0  0
    9.5769  -16.2583   -0.0298 C   0  0
   10.7353  -16.3804   -0.8148 C   0  0
   11.9874  -15.9252   -0.3570 C   0  0
   12.1039  -15.3371    0.8993 C   0  0
   10.9543  -15.2090    1.6866 C   0  0
    9.7070  -15.6584    1.2294 C   0  0
   13.2440  -14.8517    1.4794 O   0  0
   14.5129  -14.9206    0.7818 C   0  0  1  0  0  0
   15.3721  -13.7797    1.3663 C   0  0
   14.6926  -12.9981    2.2470 O   0  0
   16.5429  -13.5557    1.0932 O   0  0
   15.1828  -16.2739    1.0647 C   0  0
   16.2028  -16.6879    0.0284 C   0  0
   17.5611  -16.3804    0.2012 C   0  0
   18.5068  -16.7577   -0.7547 C   0  0
   18.1058  -17.4503   -1.8941 C   0  0
   16.7597  -17.7649   -2.0766 C   0  0
   15.8116  -17.3865   -1.1217 C   0  0
    8.3644  -18.9036    0.8513 C   0  0
    7.6331  -18.9692    2.1949 C   0  0
    8.5298  -20.3041    0.2510 C   0  0
    5.7696  -15.5932   -2.5822 H   0  0
    4.7117  -17.7327   -1.8623 H   0  0
    5.8980  -19.2095   -0.2970 H   0  0
    7.9808  -14.9552   -1.7343 H   0  0
   10.6682  -16.8386   -1.8007 H   0  0
   12.8392  -16.0506   -1.0160 H   0  0
   11.0187  -14.7542    2.6726 H   0  0
    8.8307  -15.5373    1.8652 H   0  0
   14.3807  -14.6936   -0.2817 H   0  0
   13.7777  -13.3356    2.3532 H   0  0
   15.6548  -16.2661    2.0568 H   0  0
   14.4255  -17.0661    1.1314 H   0  0
   17.8934  -15.8334    1.0818 H   0  0
   19.5558  -16.5071   -0.6100 H   0  0
   18.8421  -17.7444   -2.6381 H   0  0
   16.4482  -18.3094   -2.9643 H   0  0
   14.7705  -17.6551   -1.2802 H   0  0
    9.3789  -18.5475    1.0583 H   0  0
    8.1841  -19.5980    2.9026 H   0  0
    6.6259  -19.3876    2.0931 H   0  0
    7.5369  -17.9718    2.6378 H   0  0
    9.1262  -20.9373    0.9171 H   0  0
    9.0444  -20.2566   -0.7152 H   0  0
    7.5687  -20.8054    0.0958 H   0  0
  1  2  2  0
  1 28  1  0
  2  3  1  0
  2 29  1  0
  3  4  2  0
  3 30  1  0
  4  5  1  0
  4 25  1  0
  5  6  2  0
  5  7  1  0
  6  1  1  0
  6 31  1  0
  7  8  2  0
  8  9  1  0
  8 32  1  0
  9 10  2  0
  9 33  1  0
 10 11  1  0
 10 13  1  0
 11 12  2  0
 11 34  1  0
 12  7  1  0
 12 35  1  0
 13 14  1  0
 14 15  1  0
 14 18  1  0
 14 36  1  0
 15 16  1  0
 15 17  2  0
 16 37  1  0
 18 19  1  0
 18 38  1  0
 18 39  1  0
 19 20  2  0
 20 21  1  0
 20 40  1  0
 21 22  2  0
 21 41  1  0
 22 23  1  0
 22 42  1  0
 23 24  2  0
 23 43  1  0
 24 19  1  0
 24 44  1  0
 25 26  1  0
 25 27  1  0
 25 45  1  0
 26 46  1  0
 26 47  1  0
 26 48  1  0
 27 49  1  0
 27 50  1  0
 27 51  1  0
M  END
> <Name>
CHEMBL2312703

> <Clean Energy>
36.023701

> <chembl_id>
CHEMBL2312703

> <chembl_pref_name>
None

> <efficacy>
0.12

> <Forcefield>
MMFF

> <ForcefieldBase>
MMFF

> <ForcefieldFFML>
<?xml version="1.0" encoding="UTF-8"?>
<!DOCTYPE ffml SYSTEM "Ffml.dtd">
<ffml version="1.0">
<forcefield name="MMFF" derivedFrom="MMFF" base="MMFF">
<atomTypes>
<atomType
name="C100"
element="C"
mass="12.011"
annotation=""/>
<atomType
name="O101"
element="O"
mass="16"
annotation=""/>
<atomType
name="H102"
element="H"
mass="1.008"
annotation=""/>
</atomTypes>
<parameters>
</parameters>
</forcefield>
</ffml>

> <Initial Potential Energy>
184.31133

> <Initial RMS Gradient>
30.75683

> <Minimization Criteria>
STEEPD> Minimization exiting with gradient tolerance ( 3.0000000) satisfied.

> <CHARMm Energy>
82.84315

> <Potential Energy>
82.84315

> <RMS Gradient>
0.03264

> <Bond Energy>
8.6576

> <Angle Energy>
12.97046

> <STRBend>
0.11725

> <Dihedral Energy>
6.05794

> <OOPLane>
0.00582

> <Van der Waals Energy>
57.97096

> <Electrostatic Energy>
-2.93688

> <Hydrogen Bond Energy>
0

> <Solvation Free Energy>
0

> <HasGasteigerCharges>
true

> <REMARK99>
REMARK  99  MacroMolecule created from Mol2 file
REMARK  99  CHEMBL2312703
REMARK  99  PROTEIN
REMARK  99  GASTEIGER
REMARK  99
REMARK  99

$$$$
CHEMBL573252
  SciTegic05292516403D

 46 48  0  0  0  0            999 V2000
    8.7332  -11.4127   -0.6277 C   0  0
    9.7866  -12.2052   -1.0843 C   0  0
   11.0858  -11.9945   -0.6151 C   0  0
   11.3434  -10.9805    0.3062 C   0  0
   10.2894  -10.1767    0.7478 C   0  0
    8.9886  -10.3876    0.2831 C   0  0
   12.5545  -10.6807    0.8602 O   0  0
   13.7179  -11.3772    0.4000 C   0  0  1  0  0  0
   14.9297  -10.4533    0.5999 C   0  0
   13.9082  -12.6564    1.2310 C   0  0
   14.9231  -13.6092    0.6421 C   0  0
   16.2017  -13.7220    1.2061 C   0  0
   17.1501  -14.5736    0.6385 C   0  0
   16.8326  -15.3209   -0.4939 C   0  0
   15.5636  -15.2218   -1.0582 C   0  0
   14.6127  -14.3714   -0.4928 C   0  0
   16.0020  -10.7892   -0.1677 O   0  0
   14.9805   -9.4943    1.3571 O   0  0
    7.0839  -11.7580   -1.1919 S   0  0
    6.4512  -12.5600    0.3179 C   0  0
    5.3236  -13.5101    0.0051 C   0  0
    4.0058  -13.0490   -0.0917 C   0  0
    2.9739  -13.9374   -0.3890 C   0  0
    3.2467  -15.2891   -0.5954 C   0  0
    4.5565  -15.7559   -0.5139 C   0  0
    5.5909  -14.8698   -0.2194 C   0  0
    9.6023  -13.0039   -1.7997 H   0  0
   11.8601  -12.6528   -0.9873 H   0  0
   10.4836   -9.3780    1.4615 H   0  0
    8.1841   -9.7485    0.6400 H   0  0
   13.6540  -11.5548   -0.6799 H   0  0
   14.1921  -12.3941    2.2591 H   0  0
   12.9571  -13.1936    1.3375 H   0  0
   16.4721  -13.1446    2.0895 H   0  0
   18.1408  -14.6553    1.0803 H   0  0
   17.5734  -15.9863   -0.9312 H   0  0
   15.3086  -15.8139   -1.9340 H   0  0
   13.6238  -14.3237   -0.9424 H   0  0
   15.8686  -11.5980   -0.7019 H   0  0
    7.2542  -13.1104    0.8228 H   0  0
    6.1117  -11.7887    1.0186 H   0  0
    3.7762  -11.9966    0.0574 H   0  0
    1.9546  -13.5703   -0.4648 H   0  0
    2.4371  -15.9772   -0.8246 H   0  0
    4.7693  -16.8080   -0.6841 H   0  0
    6.6150  -15.2369   -0.1690 H   0  0
  1  2  2  0
  1 19  1  0
  2  3  1  0
  2 27  1  0
  3  4  2  0
  3 28  1  0
  4  5  1  0
  4  7  1  0
  5  6  2  0
  5 29  1  0
  6  1  1  0
  6 30  1  0
  7  8  1  0
  8  9  1  0
  8 10  1  0
  8 31  1  0
  9 17  1  0
  9 18  2  0
 10 11  1  0
 10 32  1  0
 10 33  1  0
 11 12  2  0
 12 13  1  0
 12 34  1  0
 13 14  2  0
 13 35  1  0
 14 15  1  0
 14 36  1  0
 15 16  2  0
 15 37  1  0
 16 11  1  0
 16 38  1  0
 17 39  1  0
 19 20  1  0
 20 40  1  0
 20 41  1  0
 21 20  1  0
 21 22  2  0
 22 23  1  0
 22 42  1  0
 23 24  2  0
 23 43  1  0
 24 25  1  0
 24 44  1  0
 25 26  2  0
 25 45  1  0
 26 21  1  0
 26 46  1  0
M  END
> <Name>
CHEMBL573252

> <Clean Energy>
10.8446

> <chembl_id>
CHEMBL573252

> <chembl_pref_name>
None

> <efficacy>
0.36

> <Forcefield>
MMFF

> <ForcefieldBase>
MMFF

> <ForcefieldFFML>
<?xml version="1.0" encoding="UTF-8"?>
<!DOCTYPE ffml SYSTEM "Ffml.dtd">
<ffml version="1.0">
<forcefield name="MMFF" derivedFrom="MMFF" base="MMFF">
<atomTypes>
<atomType
name="C100"
element="C"
mass="12.011"
annotation=""/>
<atomType
name="O101"
element="O"
mass="16"
annotation=""/>
<atomType
name="S102"
element="S"
mass="32.066"
annotation=""/>
<atomType
name="H103"
element="H"
mass="1.008"
annotation=""/>
</atomTypes>
<parameters>
</parameters>
</forcefield>
</ffml>

> <Initial Potential Energy>
152.76304

> <Initial RMS Gradient>
30.78499

> <Minimization Criteria>
STEEPD> Minimization exiting with gradient tolerance ( 3.0000000) satisfied.

> <CHARMm Energy>
73.97158

> <Potential Energy>
73.97158

> <RMS Gradient>
0.1241

> <Bond Energy>
5.02463

> <Angle Energy>
10.02138

> <STRBend>
-0.00434

> <Dihedral Energy>
3.8758

> <OOPLane>
0.01394

> <Van der Waals Energy>
52.82852

> <Electrostatic Energy>
2.21164

> <Hydrogen Bond Energy>
0

> <Solvation Free Energy>
0

> <HasGasteigerCharges>
true

> <REMARK99>
REMARK  99  MacroMolecule created from Mol2 file
REMARK  99  CHEMBL573252
REMARK  99  PROTEIN
REMARK  99  GASTEIGER
REMARK  99
REMARK  99

$$$$
CHEMBL2424950
  SciTegic05292516403D

 53 56  0  0  0  0            999 V2000
    2.5639   -3.5274   -0.6700 S   0  0
    3.1741   -4.0464   -1.8759 O   0  0
    2.0050   -2.1924   -0.6073 O   0  0
    5.3477   -2.0987   -0.2796 C   0  0
    5.0458   -3.3156    0.3243 C   0  0
    6.1230   -4.0983    0.7443 C   0  0
    7.4348   -3.7901    0.5514 N   0  0
    7.6927   -2.6258   -0.0884 C   0  0
    6.6833   -1.7558   -0.5097 C   0  0
    9.0007   -2.3009   -0.3663 O   0  0
   10.0006   -3.1487    0.2210 C   0  0
   10.3456   -4.3157   -0.7104 C   0  0
   11.5232   -5.1340   -0.1762 C   0  0
   12.6595   -4.2531    0.1040 N   0  0
   12.3889   -3.1071    0.9814 C   0  0
   11.2414   -2.2801    0.4260 C   0  0
   13.9701   -4.7062    0.0075 C   0  0
   14.3391   -6.0411    0.2322 C   0  0
   15.6710   -6.4613    0.1310 C   0  0
   16.6643   -5.5495   -0.2089 C   0  0
   16.3270   -4.2227   -0.4519 C   0  0
   14.9950   -3.8128   -0.3453 C   0  0
    7.0203   -0.2663   -1.3067 Cl  0  0
    3.6885   -3.7301    0.5923 N   0  0
    1.2516   -4.6506   -0.2141 C   0  0
    0.2022   -4.1845    0.5840 C   0  0
   -0.9185   -4.9954    0.8037 C   0  0
   -1.0056   -6.2661    0.2192 C   0  0
    0.0661   -6.7340   -0.5576 C   0  0
    1.1934   -5.9286   -0.7796 C   0  0
   -2.2054   -7.0538    0.3780 C   0  0
   -3.1847   -7.6690    0.4968 N   0  0
    4.5626   -1.4146   -0.5884 H   0  0
    5.9643   -5.0425    1.2580 H   0  0
    9.6896   -3.5151    1.2088 H   0  0
    9.4757   -4.9672   -0.8502 H   0  0
   10.5867   -3.9240   -1.7077 H   0  0
   11.2326   -5.6677    0.7368 H   0  0
   11.7838   -5.8828   -0.9340 H   0  0
   12.1407   -3.4756    1.9850 H   0  0
   13.2579   -2.4502    1.0986 H   0  0
   11.5335   -1.8158   -0.5254 H   0  0
   11.0079   -1.4519    1.1061 H   0  0
   13.5928   -6.7778    0.5135 H   0  0
   15.9324   -7.4996    0.3193 H   0  0
   17.6979   -5.8742   -0.2901 H   0  0
   17.0956   -3.5073   -0.7333 H   0  0
   14.7406   -2.7807   -0.5758 H   0  0
    3.5848   -4.6256    1.0683 H   0  0
    0.2181   -3.1771    0.9991 H   0  0
   -1.7391   -4.6066    1.4042 H   0  0
    0.0103   -7.7143   -1.0298 H   0  0
    1.9945   -6.2861   -1.4265 H   0  0
  1  3  2  0
  1 25  1  0
  2  1  2  0
  4  5  2  0
  4 33  1  0
  5  6  1  0
  5 24  1  0
  6  7  2  0
  6 34  1  0
  7  8  1  0
  8  9  2  0
  8 10  1  0
  9  4  1  0
  9 23  1  0
 10 11  1  0
 11 12  1  0
 11 16  1  0
 11 35  1  0
 12 13  1  0
 12 36  1  0
 12 37  1  0
 13 14  1  0
 13 38  1  0
 13 39  1  0
 14 15  1  0
 14 17  1  0
 15 16  1  0
 15 40  1  0
 15 41  1  0
 16 42  1  0
 16 43  1  0
 17 18  2  0
 18 19  1  0
 18 44  1  0
 19 20  2  0
 19 45  1  0
 20 21  1  0
 20 46  1  0
 21 22  2  0
 21 47  1  0
 22 17  1  0
 22 48  1  0
 24  1  1  0
 24 49  1  0
 25 26  2  0
 26 27  1  0
 26 50  1  0
 27 28  2  0
 27 51  1  0
 28 29  1  0
 28 31  1  0
 29 30  2  0
 29 52  1  0
 30 25  1  0
 30 53  1  0
 31 32  3  0
M  END
> <Name>
CHEMBL2424950

> <Clean Energy>
67.587097

> <chembl_id>
CHEMBL2424950

> <chembl_pref_name>
None

> <efficacy>
0.11

> <Forcefield>
MMFF

> <ForcefieldBase>
MMFF

> <ForcefieldFFML>
<?xml version="1.0" encoding="UTF-8"?>
<!DOCTYPE ffml SYSTEM "Ffml.dtd">
<ffml version="1.0">
<forcefield name="MMFF" derivedFrom="MMFF" base="MMFF">
<atomTypes>
<atomType
name="S100"
element="S"
mass="32.066"
annotation=""/>
<atomType
name="O101"
element="O"
mass="16"
annotation=""/>
<atomType
name="C102"
element="C"
mass="12.011"
annotation=""/>
<atomType
name="N103"
element="N"
mass="14.007"
annotation=""/>
<atomType
name="Cl104"
element="Cl"
mass="35.453"
annotation=""/>
<atomType
name="H105"
element="H"
mass="1.008"
annotation=""/>
</atomTypes>
<parameters>
</parameters>
</forcefield>
</ffml>

> <Initial Potential Energy>
268.95066

> <Initial RMS Gradient>
38.20252

> <Minimization Criteria>
CONJUG> Minimization exiting with gradient tolerance ( 0.0100000) satisfied.

> <CHARMm Energy>
39.44695

> <Potential Energy>
39.44695

> <RMS Gradient>
0.00866

> <Bond Energy>
5.66105

> <Angle Energy>
15.79214

> <STRBend>
1.22195

> <Dihedral Energy>
7.82256

> <OOPLane>
1.02279

> <Van der Waals Energy>
62.65831

> <Electrostatic Energy>
-54.73186

> <Hydrogen Bond Energy>
0

> <Solvation Free Energy>
0

> <HasGasteigerCharges>
true

> <REMARK99>
REMARK  99  MacroMolecule created from Mol2 file
REMARK  99  CHEMBL2424950
REMARK  99  PROTEIN
REMARK  99  GASTEIGER
REMARK  99
REMARK  99

$$$$
CHEMBL3115246
  SciTegic05292516403D

 75 80  0  0  0  0            999 V2000
   15.2946  -21.4876    0.7700 C   0  0
   16.6689  -21.2589    0.3301 C   0  0
   16.8647  -20.4122   -0.8132 C   0  0
   18.1256  -20.0876   -1.3487 C   0  0
   17.7347  -21.8473    1.0507 C   0  0
   20.2105  -21.8802    0.9806 C   0  0
   18.9722  -21.5102    0.5010 C   0  0
   19.1925  -20.6689   -0.6483 C   0  0
   20.5054  -20.5614   -0.8665 N   0  0
   21.0990  -21.2613    0.1230 N   0  0
   20.6201  -22.6900    2.1718 C   0  0
   22.5478  -21.1883    0.2232 C   0  0
   23.3052  -22.1156   -0.7287 C   0  0
   21.4476  -23.9166    1.8576 C   0  0
   22.5766  -24.2129    2.6325 C   0  0
   23.3515  -25.3445    2.3615 C   0  0
   23.0187  -26.2104    1.3105 C   0  0
   21.8721  -25.9234    0.5545 C   0  0
   21.0911  -24.7974    0.8293 C   0  0
   23.8084  -27.4231    1.0415 C   0  0
   23.1992  -28.6702    1.2937 C   0  0
   23.8795  -29.8689    1.0826 C   0  0
   25.1903  -29.8515    0.6208 C   0  0
   25.8193  -28.6339    0.3645 C   0  0
   25.1398  -27.4192    0.5677 C   0  0
   14.6521  -20.7357    1.6433 N   0  0
   14.4638  -22.4704    0.2712 N   0  0
   13.2116  -22.2887    0.8122 C   0  0
   13.3649  -21.1993    1.6637 C   0  0
   12.2618  -20.7213    2.3838 C   0  0
   11.0240  -21.3487    2.2104 C   0  0
   10.8928  -22.4396    1.3502 C   0  0
   11.9866  -22.9411    0.6358 C   0  0
   14.8279  -23.5161   -0.6666 C   0  0
   14.5072  -23.1533   -2.1153 C   0  0
   14.9317  -24.2724   -3.0656 C   0  0
   23.2511  -21.6752   -2.1843 C   0  0
   14.6277  -23.9211   -4.5129 C   0  0
   25.8376  -26.1576    0.2064 C   0  0
   27.1661  -26.2342    0.4162 O   0  0
   25.3292  -25.1397   -0.2251 O   0  0
   15.9862  -19.9717   -1.2884 H   0  0
   18.2561  -19.4340   -2.2001 H   0  0
   17.5818  -22.4606    1.9279 H   0  0
   21.1677  -22.0312    2.8583 H   0  0
   19.7368  -23.0278    2.7267 H   0  0
   22.8309  -20.1422    0.0522 H   0  0
   22.8244  -21.4144    1.2572 H   0  0
   24.3574  -22.1367   -0.4199 H   0  0
   22.9309  -23.1402   -0.6559 H   0  0
   22.8657  -23.5636    3.4562 H   0  0
   24.2177  -25.5479    2.9865 H   0  0
   21.5759  -26.5761   -0.2642 H   0  0
   20.2148  -24.6056    0.2147 H   0  0
   22.1753  -28.7054    1.6681 H   0  0
   23.3835  -30.8144    1.2811 H   0  0
   25.7207  -30.7832    0.4503 H   0  0
   26.8395  -28.6371   -0.0136 H   0  0
   12.3721  -19.8717    3.0480 H   0  0
   10.1585  -20.9756    2.7504 H   0  0
    9.9215  -22.9104    1.2272 H   0  0
   11.8697  -23.7867   -0.0333 H   0  0
   15.8958  -23.7281   -0.5456 H   0  0
   14.2939  -24.4258   -0.3673 H   0  0
   13.4320  -22.9648   -2.2245 H   0  0
   15.0168  -22.2230   -2.3921 H   0  0
   16.0062  -24.4625   -2.9602 H   0  0
   14.4110  -25.2009   -2.8033 H   0  0
   23.9016  -22.3124   -2.7923 H   0  0
   23.5906  -20.6409   -2.2971 H   0  0
   22.2392  -21.7568   -2.5909 H   0  0
   14.9407  -24.7354   -5.1739 H   0  0
   15.1595  -23.0137   -4.8164 H   0  0
   13.5555  -23.7570   -4.6597 H   0  0
   27.4881  -25.3482    0.1470 H   0  0
  1 26  2  0
  2  1  1  0
  2  3  1  0
  3  4  2  0
  3 42  1  0
  4  8  1  0
  4 43  1  0
  5  2  2  0
  5 44  1  0
  6  7  2  0
  6 11  1  0
  7  5  1  0
  7  8  1  0
  8  9  2  0
  9 10  1  0
 10  6  1  0
 10 12  1  0
 11 14  1  0
 11 45  1  0
 11 46  1  0
 12 13  1  0
 12 47  1  0
 12 48  1  0
 13 37  1  0
 13 49  1  0
 13 50  1  0
 14 15  2  0
 15 16  1  0
 15 51  1  0
 16 17  2  0
 16 52  1  0
 17 18  1  0
 17 20  1  0
 18 19  2  0
 18 53  1  0
 19 14  1  0
 19 54  1  0
 20 21  2  0
 21 22  1  0
 21 55  1  0
 22 23  2  0
 22 56  1  0
 23 24  1  0
 23 57  1  0
 24 25  2  0
 24 58  1  0
 25 20  1  0
 25 39  1  0
 26 29  1  0
 27  1  1  0
 27 34  1  0
 28 27  1  0
 28 29  2  0
 29 30  1  0
 30 31  2  0
 30 59  1  0
 31 32  1  0
 31 60  1  0
 32 33  2  0
 32 61  1  0
 33 28  1  0
 33 62  1  0
 34 35  1  0
 34 63  1  0
 34 64  1  0
 35 36  1  0
 35 65  1  0
 35 66  1  0
 36 38  1  0
 36 67  1  0
 36 68  1  0
 37 69  1  0
 37 70  1  0
 37 71  1  0
 38 72  1  0
 38 73  1  0
 38 74  1  0
 39 40  1  0
 39 41  2  0
 40 75  1  0
M  END
> <Name>
CHEMBL3115246

> <Clean Energy>
86.385696

> <chembl_id>
CHEMBL3115246

> <chembl_pref_name>
None

> <efficacy>
0.4

> <Forcefield>
MMFF

> <ForcefieldBase>
MMFF

> <ForcefieldFFML>
<?xml version="1.0" encoding="UTF-8"?>
<!DOCTYPE ffml SYSTEM "Ffml.dtd">
<ffml version="1.0">
<forcefield name="MMFF" derivedFrom="MMFF" base="MMFF">
<atomTypes>
<atomType
name="C100"
element="C"
mass="12.011"
annotation=""/>
<atomType
name="N101"
element="N"
mass="14.007"
annotation=""/>
<atomType
name="O102"
element="O"
mass="16"
annotation=""/>
<atomType
name="H103"
element="H"
mass="1.008"
annotation=""/>
</atomTypes>
<parameters>
</parameters>
</forcefield>
</ffml>

> <Initial Potential Energy>
241.10883

> <Initial RMS Gradient>
32.55949

> <Minimization Criteria>
STEEPD> Minimization exiting with gradient tolerance ( 3.0000000) satisfied.

> <CHARMm Energy>
81.60674

> <Potential Energy>
81.60674

> <RMS Gradient>
0.061

> <Bond Energy>
10.1234

> <Angle Energy>
21.43318

> <STRBend>
-1.82852

> <Dihedral Energy>
5.72967

> <OOPLane>
0.13134

> <Van der Waals Energy>
71.51298

> <Electrostatic Energy>
-25.49531

> <Hydrogen Bond Energy>
0

> <Solvation Free Energy>
0

> <HasGasteigerCharges>
true

> <REMARK99>
REMARK  99  MacroMolecule created from Mol2 file
REMARK  99  CHEMBL3115246
REMARK  99  PROTEIN
REMARK  99  GASTEIGER
REMARK  99
REMARK  99

$$$$
CHEMBL4850966
  SciTegic05292516403D

 44 46  0  0  0  0            999 V2000
    9.2894  -24.8739    1.1211 C   0  0
   10.5653  -24.4990    0.6808 C   0  0
   10.7352  -23.5284   -0.3103 C   0  0
    9.6063  -22.9213   -0.8863 C   0  0
    8.1769  -24.2329    0.5519 C   0  0
    8.3182  -23.2601   -0.4360 C   0  0
    7.0203  -22.8026   -0.7678 C   0  0
    6.1046  -23.4773    0.0177 C   0  0
    6.8189  -24.3822    0.7778 N   0  0
   12.1153  -23.0943   -0.7414 C   0  0
   12.3960  -21.6682   -0.2738 C   0  0
   13.7238  -21.1779   -0.7775 C   0  0
   13.8383  -19.8295   -0.7044 O   0  0
   14.6310  -21.8860   -1.1845 O   0  0
    4.6498  -23.3285    0.0210 C   0  0
    3.9598  -22.6843    1.0665 C   0  0
    2.5659  -22.5706    0.9860 C   0  0
    1.8716  -23.0625   -0.1223 C   0  0
    2.5530  -23.6924   -1.1672 C   0  0
    3.9416  -23.8117   -1.0911 C   0  0
    6.2588  -25.3694    1.6771 C   0  0
    4.6813  -22.1104    2.2551 C   0  0
    1.8084  -24.1800   -2.3745 C   0  0
    9.1759  -25.6316    1.8896 H   0  0
   11.4345  -24.9792    1.1287 H   0  0
    9.7153  -22.1728   -1.6660 H   0  0
    6.7739  -22.0401   -1.4952 H   0  0
   12.8728  -23.7802   -0.3419 H   0  0
   12.1873  -23.1669   -1.8343 H   0  0
   11.6202  -20.9920   -0.6515 H   0  0
   12.3999  -21.6127    0.8206 H   0  0
   13.0283  -19.3993   -0.3651 H   0  0
    1.9987  -22.0891    1.7817 H   0  0
    0.7894  -22.9458   -0.1644 H   0  0
    4.4997  -24.2734   -1.9053 H   0  0
    6.4359  -25.0346    2.7021 H   0  0
    6.7524  -26.3281    1.4966 H   0  0
    5.1887  -25.4873    1.4978 H   0  0
    5.0395  -22.9120    2.9071 H   0  0
    4.0203  -21.4685    2.8478 H   0  0
    5.5252  -21.4897    1.9375 H   0  0
    2.3133  -25.0422   -2.8228 H   0  0
    1.7411  -23.3821   -3.1203 H   0  0
    0.7964  -24.5008   -2.1061 H   0  0
  1  2  2  0
  1 24  1  0
  2  3  1  0
  2 25  1  0
  3  4  2  0
  3 10  1  0
  4  6  1  0
  4 26  1  0
  5  1  1  0
  5  6  2  0
  6  7  1  0
  7  8  2  0
  7 27  1  0
  8  9  1  0
  8 15  1  0
  9  5  1  0
  9 21  1  0
 10 11  1  0
 10 28  1  0
 10 29  1  0
 11 12  1  0
 11 30  1  0
 11 31  1  0
 12 13  1  0
 12 14  2  0
 13 32  1  0
 15 16  2  0
 16 17  1  0
 16 22  1  0
 17 18  2  0
 17 33  1  0
 18 19  1  0
 18 34  1  0
 19 20  2  0
 19 23  1  0
 20 15  1  0
 20 35  1  0
 21 36  1  0
 21 37  1  0
 21 38  1  0
 22 39  1  0
 22 40  1  0
 22 41  1  0
 23 42  1  0
 23 43  1  0
 23 44  1  0
M  END
> <Name>
CHEMBL4850966

> <Clean Energy>
30.781799

> <chembl_id>
CHEMBL4850966

> <chembl_pref_name>
None

> <efficacy>
0.0001

> <Forcefield>
MMFF

> <ForcefieldBase>
MMFF

> <ForcefieldFFML>
<?xml version="1.0" encoding="UTF-8"?>
<!DOCTYPE ffml SYSTEM "Ffml.dtd">
<ffml version="1.0">
<forcefield name="MMFF" derivedFrom="MMFF" base="MMFF">
<atomTypes>
<atomType
name="C100"
element="C"
mass="12.011"
annotation=""/>
<atomType
name="N101"
element="N"
mass="14.007"
annotation=""/>
<atomType
name="O102"
element="O"
mass="16"
annotation=""/>
<atomType
name="H103"
element="H"
mass="1.008"
annotation=""/>
</atomTypes>
<parameters>
</parameters>
</forcefield>
</ffml>

> <Initial Potential Energy>
82.97343

> <Initial RMS Gradient>
29.86907

> <Minimization Criteria>
STEEPD> Minimization exiting with gradient tolerance ( 3.0000000) satisfied.

> <CHARMm Energy>
16.06184

> <Potential Energy>
16.06184

> <RMS Gradient>
0.05563

> <Bond Energy>
4.56686

> <Angle Energy>
3.84141

> <STRBend>
-0.51226

> <Dihedral Energy>
2.81849

> <OOPLane>
0.053

> <Van der Waals Energy>
42.38053

> <Electrostatic Energy>
-37.08619

> <Hydrogen Bond Energy>
0

> <Solvation Free Energy>
0

> <HasGasteigerCharges>
true

> <REMARK99>
REMARK  99  MacroMolecule created from Mol2 file
REMARK  99  CHEMBL4850966
REMARK  99  PROTEIN
REMARK  99  GASTEIGER
REMARK  99
REMARK  99

$$$$
CHEMBL4847662
  SciTegic05292516403D

 41 43  0  0  0  0            999 V2000
   19.7009  -17.3480   -2.1062 C   0  0
   20.9973  -16.8757   -1.8619 C   0  0
   21.2528  -15.9373   -0.8560 C   0  0
   20.1900  -15.4401   -0.0812 C   0  0
   18.6699  -16.8630   -1.2933 C   0  0
   18.8881  -15.9250   -0.2889 C   0  0
   17.6415  -15.6846    0.3418 C   0  0
   16.6827  -16.4632   -0.2778 C   0  0
   17.3252  -17.1582   -1.2784 N   0  0
   22.6624  -15.4916   -0.5487 C   0  0
   23.1198  -16.0815    0.7835 C   0  0
   24.4626  -15.5461    1.1917 C   0  0
   24.7249  -15.7597    2.5043 O   0  0
   25.2630  -15.0023    0.4479 O   0  0
   15.2550  -16.6054    0.0047 C   0  0
   14.3900  -15.4940    0.0527 C   0  0
   13.0478  -15.6954    0.3987 C   0  0
   12.5590  -16.9758    0.6664 C   0  0
   13.4060  -18.0845    0.6119 C   0  0
   14.7471  -17.8909    0.2697 C   0  0
   14.8684  -14.0929   -0.2211 C   0  0
   12.8666  -19.4616    0.8655 C   0  0
   19.5134  -18.0769   -2.8879 H   0  0
   21.8164  -17.2598   -2.4689 H   0  0
   20.3666  -14.7040    0.6980 H   0  0
   17.4655  -15.0223    1.1792 H   0  0
   16.8711  -17.8008   -1.9112 H   0  0
   23.3444  -15.7948   -1.3530 H   0  0
   22.6929  -14.3948   -0.5213 H   0  0
   22.4018  -15.8258    1.5716 H   0  0
   23.1875  -17.1735    0.7199 H   0  0
   23.9840  -16.1970    2.9702 H   0  0
   12.3607  -14.8526    0.4553 H   0  0
   11.5068  -17.0991    0.9196 H   0  0
   15.4238  -18.7439    0.2445 H   0  0
   14.0256  -13.4233   -0.4262 H   0  0
   15.5129  -14.0611   -1.1053 H   0  0
   15.4065  -13.6982    0.6458 H   0  0
   13.6467  -20.1202    1.2614 H   0  0
   12.4820  -19.8896   -0.0653 H   0  0
   12.0590  -19.4344    1.6046 H   0  0
  1  2  2  0
  1 23  1  0
  2  3  1  0
  2 24  1  0
  3  4  2  0
  3 10  1  0
  4  6  1  0
  4 25  1  0
  5  1  1  0
  5  6  2  0
  6  7  1  0
  7  8  2  0
  7 26  1  0
  8  9  1  0
  8 15  1  0
  9  5  1  0
  9 27  1  0
 10 11  1  0
 10 28  1  0
 10 29  1  0
 11 12  1  0
 11 30  1  0
 11 31  1  0
 12 13  1  0
 12 14  2  0
 13 32  1  0
 15 16  2  0
 16 17  1  0
 16 21  1  0
 17 18  2  0
 17 33  1  0
 18 19  1  0
 18 34  1  0
 19 20  2  0
 19 22  1  0
 20 15  1  0
 20 35  1  0
 21 36  1  0
 21 37  1  0
 21 38  1  0
 22 39  1  0
 22 40  1  0
 22 41  1  0
M  END
> <Name>
CHEMBL4847662

> <Clean Energy>
24.308201

> <chembl_id>
CHEMBL4847662

> <chembl_pref_name>
None

> <efficacy>
0.1518

> <Forcefield>
MMFF

> <ForcefieldBase>
MMFF

> <ForcefieldFFML>
<?xml version="1.0" encoding="UTF-8"?>
<!DOCTYPE ffml SYSTEM "Ffml.dtd">
<ffml version="1.0">
<forcefield name="MMFF" derivedFrom="MMFF" base="MMFF">
<atomTypes>
<atomType
name="C100"
element="C"
mass="12.011"
annotation=""/>
<atomType
name="N101"
element="N"
mass="14.007"
annotation=""/>
<atomType
name="O102"
element="O"
mass="16"
annotation=""/>
<atomType
name="H103"
element="H"
mass="1.008"
annotation=""/>
</atomTypes>
<parameters>
</parameters>
</forcefield>
</ffml>

> <Initial Potential Energy>
65.68952

> <Initial RMS Gradient>
30.76846

> <Minimization Criteria>
CONJUG> Minimization exiting with gradient tolerance ( 0.0100000) satisfied.

> <CHARMm Energy>
9.84984

> <Potential Energy>
9.84984

> <RMS Gradient>
0.00926

> <Bond Energy>
4.38526

> <Angle Energy>
2.96869

> <STRBend>
-0.67354

> <Dihedral Energy>
1.38219

> <OOPLane>
0.0577

> <Van der Waals Energy>
39.54972

> <Electrostatic Energy>
-37.82018

> <Hydrogen Bond Energy>
0

> <Solvation Free Energy>
0

> <HasGasteigerCharges>
true

> <REMARK99>
REMARK  99  MacroMolecule created from Mol2 file
REMARK  99  CHEMBL4847662
REMARK  99  PROTEIN
REMARK  99  GASTEIGER
REMARK  99
REMARK  99

$$$$
CHEMBL196227
  SciTegic05292516403D

 55 55  0  0  0  0            999 V2000
    6.7328  -17.6965    0.0581 C   0  0
    6.9894  -19.0713    0.0720 C   0  0
    6.0388  -20.0224   -0.1059 N   0  0
   16.5215  -18.1234   -1.2956 C   0  0
   17.1340  -17.3402   -2.0214 O   0  0
    7.8358  -16.6964    0.3358 C   0  0  2  0  0  0
    8.2905  -19.4720    0.3098 O   0  0
   16.9641  -19.4031   -1.1731 O   0  0
    5.4082  -17.3064   -0.1779 C   0  0
    7.2847  -15.3709    0.4222 O   0  0
    4.7774  -19.5974   -0.3273 C   0  0
   15.3381  -17.6775   -0.4523 C   0  0
    8.9809  -16.7151   -0.7129 C   0  0
    8.5171  -20.8616    0.0662 C   0  0
   16.1316  -20.4120   -0.5865 C   0  0
   14.0199  -17.5786   -1.2272 C   0  0
    4.4181  -18.2646   -0.3769 C   0  0
   10.3697  -16.7387   -0.0413 C   0  0
   10.0249  -21.1080   -0.0046 C   0  0
   12.2474  -21.0326    1.1853 C   0  0
   10.7427  -20.7878    1.3088 C   0  0
   12.8670  -17.1421   -0.3052 C   0  0
   11.5109  -17.0542   -1.0254 C   0  0
   12.9801  -20.6695    2.4665 C   0  0
    8.2222  -16.9201    1.3381 H   0  0
    5.1264  -16.2546   -0.1928 H   0  0
    8.0316  -14.7807    0.6217 H   0  0
    4.0401  -20.3823   -0.4678 H   0  0
   15.2295  -18.3129    0.4313 H   0  0
   15.6007  -16.6903   -0.0494 H   0  0
    8.9021  -17.5914   -1.3666 H   0  0
    8.9178  -15.8343   -1.3639 H   0  0
    8.0736  -21.4575    0.8727 H   0  0
    8.0862  -21.1657   -0.8964 H   0  0
   16.5190  -21.3854   -0.9007 H   0  0
   15.0983  -20.3332   -0.9327 H   0  0
   16.1920  -20.3557    0.5036 H   0  0
   14.1288  -16.8613   -2.0494 H   0  0
   13.7810  -18.5456   -1.6841 H   0  0
    3.3892  -17.9729   -0.5551 H   0  0
   10.5536  -15.7719    0.4425 H   0  0
   10.3760  -17.4974    0.7496 H   0  0
   10.2035  -22.1551   -0.2756 H   0  0
   10.4498  -20.4829   -0.7999 H   0  0
   12.4345  -22.0865    0.9489 H   0  0
   12.6557  -20.4389    0.3593 H   0  0
   10.3324  -21.4106    2.1128 H   0  0
   10.5661  -19.7436    1.5891 H   0  0
   12.7869  -17.8547    0.5247 H   0  0
   13.1035  -16.1659    0.1355 H   0  0
   11.5538  -16.2822   -1.8024 H   0  0
   11.3049  -18.0086   -1.5246 H   0  0
   14.0530  -20.8550    2.3550 H   0  0
   12.6170  -21.2667    3.3089 H   0  0
   12.8427  -19.6112    2.7102 H   0  0
  2  1  1  0
  3  2  2  0
  3 11  1  0
  4 12  1  0
  5  4  2  0
  6  1  1  0
  6 25  1  0
  7  2  1  0
  8  4  1  0
  9  1  2  0
  9 26  1  0
 10  6  1  0
 10 27  1  0
 11 17  2  0
 11 28  1  0
 12 16  1  0
 12 29  1  0
 12 30  1  0
 13  6  1  0
 13 31  1  0
 13 32  1  0
 14  7  1  0
 14 33  1  0
 14 34  1  0
 15  8  1  0
 15 35  1  0
 15 36  1  0
 15 37  1  0
 16 22  1  0
 16 38  1  0
 16 39  1  0
 17  9  1  0
 17 40  1  0
 18 13  1  0
 18 41  1  0
 18 42  1  0
 19 14  1  0
 19 43  1  0
 19 44  1  0
 20 21  1  0
 20 45  1  0
 20 46  1  0
 21 19  1  0
 21 47  1  0
 21 48  1  0
 22 23  1  0
 22 49  1  0
 22 50  1  0
 23 18  1  0
 23 51  1  0
 23 52  1  0
 24 20  1  0
 24 53  1  0
 24 54  1  0
 24 55  1  0
M  END
> <Name>
CHEMBL196227

> <Clean Energy>
40.7211

> <chembl_id>
CHEMBL196227

> <chembl_pref_name>
None

> <efficacy>
0.13

> <Forcefield>
MMFF

> <ForcefieldBase>
MMFF

> <ForcefieldFFML>
<?xml version="1.0" encoding="UTF-8"?>
<!DOCTYPE ffml SYSTEM "Ffml.dtd">
<ffml version="1.0">
<forcefield name="MMFF" derivedFrom="MMFF" base="MMFF">
<atomTypes>
<atomType
name="C100"
element="C"
mass="12.011"
annotation=""/>
<atomType
name="N101"
element="N"
mass="14.007"
annotation=""/>
<atomType
name="O102"
element="O"
mass="16"
annotation=""/>
<atomType
name="H103"
element="H"
mass="1.008"
annotation=""/>
</atomTypes>
<parameters>
</parameters>
</forcefield>
</ffml>

> <Initial Potential Energy>
101.80319

> <Initial RMS Gradient>
24.28221

> <Minimization Criteria>
CONJUG> Minimization exiting with gradient tolerance ( 0.0100000) satisfied.

> <CHARMm Energy>
-2.97888

> <Potential Energy>
-2.97888

> <RMS Gradient>
0.00876

> <Bond Energy>
4.32402

> <Angle Energy>
13.29681

> <STRBend>
1.04732

> <Dihedral Energy>
-11.07896

> <OOPLane>
0.14446

> <Van der Waals Energy>
36.92531

> <Electrostatic Energy>
-47.63784

> <Hydrogen Bond Energy>
0

> <Solvation Free Energy>
0

> <HasGasteigerCharges>
true

> <REMARK99>
REMARK  99  MacroMolecule created from Mol2 file
REMARK  99  CHEMBL196227
REMARK  99  PROTEIN
REMARK  99  GASTEIGER
REMARK  99
REMARK  99

$$$$
CHEMBL196260
  SciTegic05292516403D

 49 49  0  0  0  0            999 V2000
    0.9724    0.5498   -0.1350 C   0  0
    1.3553   -0.7328    0.2670 C   0  0
   10.6463    1.4967   -1.7878 C   0  0
    0.5077   -1.7971    0.3045 N   0  0
   11.6650    0.7996   -1.4805 O   0  5
    1.9576    1.6985   -0.0815 C   0  0  2  0  0  0
   10.5571    2.3786   -2.6905 O   0  0
    4.4378    1.9330   -0.7334 C   0  0
    5.5063    1.1667   -1.0306 C   0  0
    2.6583   -0.8968    0.6891 O   0  0
   -0.3491    0.7127   -0.5702 C   0  0
    1.2327    2.9497   -0.1297 O   0  0
    3.0235    1.6500   -1.2172 C   0  0
    9.4087    1.2888   -0.8990 C   0  0
   -0.7571   -1.5875   -0.1142 C   0  0
    6.9044    1.3577   -0.4789 C   0  0
    3.0275   -2.2578    0.9116 C   0  0
    8.0202    1.4352   -1.5413 C   0  0
   -1.2267   -0.3669   -0.5624 C   0  0
    4.5175   -2.2799    1.2460 C   0  0
    6.5112   -3.7063    1.8383 C   0  0
    5.0188   -3.6980    1.5082 C   0  0
    7.0166   -5.1163    2.0983 C   0  0
    2.4388    1.6824    0.9048 H   0  0
    4.5758    2.8023   -0.0942 H   0  0
    5.3775    0.2928   -1.6672 H   0  0
   -0.7028    1.6860   -0.9042 H   0  0
    1.9248    3.6360   -0.1234 H   0  0
    2.7786    2.3992   -1.9804 H   0  0
    3.0113    0.6724   -1.7151 H   0  0
    9.4796    0.2923   -0.4442 H   0  0
    9.5008    2.0139   -0.0799 H   0  0
   -1.4055   -2.4577   -0.0799 H   0  0
    6.9467    2.2550    0.1506 H   0  0
    7.1027    0.5033    0.1811 H   0  0
    2.4560   -2.6697    1.7523 H   0  0
    2.8483   -2.8555    0.0090 H   0  0
    7.9457    2.3884   -2.0779 H   0  0
    7.8907    0.6421   -2.2878 H   0  0
   -2.2538   -0.2523   -0.8891 H   0  0
    5.0802   -1.8260    0.4206 H   0  0
    4.7025   -1.6433    2.1204 H   0  0
    7.0788   -3.2680    1.0090 H   0  0
    6.7001   -3.0876    2.7233 H   0  0
    4.8341   -4.3223    0.6256 H   0  0
    4.4557   -4.1392    2.3397 H   0  0
    8.0854   -5.0985    2.3338 H   0  0
    6.8730   -5.7529    1.2194 H   0  0
    6.4903   -5.5723    2.9429 H   0  0
  2  1  1  0
  3 14  1  0
  4  2  2  0
  5  3  1  0
  6  1  1  0
  6 24  1  0
  7  3  2  0
  8 13  1  0
  8 25  1  0
  9  8  2  0
  9 26  1  0
 10  2  1  0
 11  1  2  0
 11 27  1  0
 12  6  1  0
 12 28  1  0
 13  6  1  0
 13 29  1  0
 13 30  1  0
 14 18  1  0
 14 31  1  0
 14 32  1  0
 15  4  1  0
 15 19  2  0
 15 33  1  0
 16  9  1  0
 16 34  1  0
 16 35  1  0
 17 10  1  0
 17 36  1  0
 17 37  1  0
 18 16  1  0
 18 38  1  0
 18 39  1  0
 19 11  1  0
 19 40  1  0
 20 17  1  0
 20 41  1  0
 20 42  1  0
 21 22  1  0
 21 43  1  0
 21 44  1  0
 22 20  1  0
 22 45  1  0
 22 46  1  0
 23 21  1  0
 23 47  1  0
 23 48  1  0
 23 49  1  0
M  CHG  1   5  -1
M  END
> <Name>
CHEMBL196260

> <Clean Energy>
23.7609

> <chembl_id>
CHEMBL196260

> <chembl_pref_name>
None

> <efficacy>
0.31

> <Forcefield>
MMFF

> <ForcefieldBase>
MMFF

> <ForcefieldFFML>
<?xml version="1.0" encoding="UTF-8"?>
<!DOCTYPE ffml SYSTEM "Ffml.dtd">
<ffml version="1.0">
<forcefield name="MMFF" derivedFrom="MMFF" base="MMFF">
<atomTypes>
<atomType
name="C100"
element="C"
mass="12.011"
annotation=""/>
<atomType
name="N101"
element="N"
mass="14.007"
annotation=""/>
<atomType
name="O102"
element="O"
mass="16"
annotation=""/>
<atomType
name="H103"
element="H"
mass="1.008"
annotation=""/>
</atomTypes>
<parameters>
</parameters>
</forcefield>
</ffml>

> <Initial Potential Energy>
120.28061

> <Initial RMS Gradient>
29.18697

> <Minimization Criteria>
CONJUG> Minimization exiting with gradient tolerance ( 0.0100000) satisfied.

> <CHARMm Energy>
13.07006

> <Potential Energy>
13.07006

> <RMS Gradient>
0.00976

> <Bond Energy>
4.67646

> <Angle Energy>
10.07284

> <STRBend>
0.88337

> <Dihedral Energy>
-11.55957

> <OOPLane>
0.13271

> <Van der Waals Energy>
34.28978

> <Electrostatic Energy>
-25.42554

> <Hydrogen Bond Energy>
0

> <Solvation Free Energy>
0

> <HasGasteigerCharges>
true

> <REMARK99>
REMARK  99  MacroMolecule created from Mol2 file
REMARK  99  CHEMBL196260
REMARK  99  PROTEIN
REMARK  99  GASTEIGER
REMARK  99
REMARK  99

$$$$
CHEMBL57710
  SciTegic05292516403D

 71 75  0  0  0  0            999 V2000
    3.0066   -4.7243   -0.1182 C   0  0
    4.4628   -4.3424   -0.1343 C   0  0  2  0  0  0
    2.4000   -4.1568    0.9956 C   0  0
   16.6013   -7.3082    2.2074 N   0  0
    3.2624   -3.4719    1.8109 O   0  0
   16.3085   -6.0433    1.8040 C   0  0
   14.3821   -7.6298    1.5731 C   0  0
    2.2774   -5.5755   -0.9533 C   0  0
   15.6132   -8.2418    2.1162 C   0  0
    4.4972   -3.3240    1.0549 C   0  0
   14.6480   -5.9552    1.2591 S   0  0
    0.8888   -5.6761   -0.7157 C   0  0
    1.0476   -4.3067    1.2897 C   0  0
    0.2593   -5.0375    0.3781 C   0  0
    4.9571   -3.7810   -1.4831 C   0  0
    6.3974   -3.4393   -1.5384 N   0  0
   13.2818   -8.3635    1.3671 C   0  0
   17.0991   -5.1125    1.8187 O   0  0
    7.2720   -4.6032   -1.8443 C   0  0  2  0  0  0
   15.7455   -9.4137    2.4339 O   0  0
    7.9642   -5.1979   -0.6083 C   0  0
   12.0283   -7.8562    0.8076 C   0  0
    8.5803   -6.4217   -1.0256 O   0  0
    0.0770   -6.4146   -1.5433 O   0  0
    9.6784   -6.8471   -0.3399 C   0  0
    6.6049   -2.4670   -2.6340 C   0  0
    2.9456   -6.3632   -2.0431 C   0  0
    4.5671   -1.8336    0.6860 C   0  0
    5.6397   -3.6499    2.0239 C   0  0
   11.6041   -8.3148   -0.4408 C   0  0
   11.2459   -6.9226    1.4971 C   0  0
    0.4607   -3.6640    2.5134 C   0  0
   10.4351   -7.8111   -1.0081 C   0  0
   10.0722   -6.4198    0.9258 C   0  0
   -1.2224   -5.2099    0.6028 C   0  0
    8.0883   -2.5802   -2.9025 C   0  0
    8.3194   -4.0774   -2.8466 C   0  0
    5.0209   -5.2505    0.1221 H   0  0
   17.5196   -7.5445    2.5526 H   0  0
    4.7210   -4.4599   -2.3084 H   0  0
    4.3615   -2.8853   -1.7076 H   0  0
   13.2944   -9.4302    1.5936 H   0  0
    6.7134   -5.4003   -2.3539 H   0  0
    8.6917   -4.4751   -0.2179 H   0  0
    7.2415   -5.4403    0.1749 H   0  0
    0.5916   -6.7141   -2.3072 H   0  0
    6.0417   -2.7409   -3.5358 H   0  0
    6.3244   -1.4534   -2.3318 H   0  0
    2.5264   -7.3727   -2.1110 H   0  0
    4.0110   -6.5093   -1.8417 H   0  0
    2.8242   -5.8584   -3.0059 H   0  0
    5.5146   -1.5640    0.2126 H   0  0
    4.4576   -1.2118    1.5832 H   0  0
    3.7418   -1.5468    0.0251 H   0  0
    5.5873   -3.0150    2.9161 H   0  0
    6.6185   -3.5063    1.5568 H   0  0
    5.5680   -4.6835    2.3813 H   0  0
   12.1826   -9.0516   -0.9902 H   0  0
   11.5445   -6.5704    2.4820 H   0  0
   -0.1853   -4.3693    3.0464 H   0  0
   -0.1206   -2.7806    2.2311 H   0  0
    1.2310   -3.3497    3.2247 H   0  0
   10.1106   -8.1618   -1.9848 H   0  0
    9.4906   -5.7007    1.4931 H   0  0
   -1.6669   -4.3053    1.0295 H   0  0
   -1.4005   -6.0505    1.2803 H   0  0
   -1.7594   -5.3936   -0.3331 H   0  0
    8.3759   -2.1521   -3.8670 H   0  0
    8.6653   -2.0782   -2.1162 H   0  0
    8.1273   -4.5107   -3.8363 H   0  0
    9.3552   -4.3072   -2.5771 H   0  0
  2  1  1  0
  2 38  1  0
  3  1  2  0
  4  6  1  0
  4  9  1  0
  4 39  1  0
  5  3  1  0
  6 11  1  0
  7 17  2  0
  8  1  1  0
  9  7  1  0
 10  2  1  0
 10  5  1  0
 11  7  1  0
 12  8  2  0
 13  3  1  0
 14 12  1  0
 14 13  2  0
 15  2  1  0
 15 40  1  0
 15 41  1  0
 16 15  1  0
 17 22  1  0
 17 42  1  0
 18  6  2  0
 19 16  1  0
 19 21  1  0
 19 43  1  0
 20  9  2  0
 21 44  1  0
 21 45  1  0
 22 30  1  0
 22 31  2  0
 23 21  1  0
 24 12  1  0
 24 46  1  0
 25 23  1  0
 26 16  1  0
 26 47  1  0
 26 48  1  0
 27  8  1  0
 27 49  1  0
 27 50  1  0
 27 51  1  0
 28 10  1  0
 28 52  1  0
 28 53  1  0
 28 54  1  0
 29 10  1  0
 29 55  1  0
 29 56  1  0
 29 57  1  0
 30 33  2  0
 30 58  1  0
 31 34  1  0
 31 59  1  0
 32 13  1  0
 32 60  1  0
 32 61  1  0
 32 62  1  0
 33 25  1  0
 33 63  1  0
 34 25  2  0
 34 64  1  0
 35 14  1  0
 35 65  1  0
 35 66  1  0
 35 67  1  0
 36 26  1  0
 36 37  1  0
 36 68  1  0
 36 69  1  0
 37 19  1  0
 37 70  1  0
 37 71  1  0
M  END
> <Name>
CHEMBL57710

> <Clean Energy>
139.460007

> <chembl_id>
CHEMBL57710

> <chembl_pref_name>
None

> <efficacy>
0.221518987

> <Forcefield>
MMFF

> <ForcefieldBase>
MMFF

> <ForcefieldFFML>
<?xml version="1.0" encoding="UTF-8"?>
<!DOCTYPE ffml SYSTEM "Ffml.dtd">
<ffml version="1.0">
<forcefield name="MMFF" derivedFrom="MMFF" base="MMFF">
<atomTypes>
<atomType
name="C100"
element="C"
mass="12.011"
annotation=""/>
<atomType
name="N101"
element="N"
mass="14.007"
annotation=""/>
<atomType
name="O102"
element="O"
mass="16"
annotation=""/>
<atomType
name="S103"
element="S"
mass="32.066"
annotation=""/>
<atomType
name="H104"
element="H"
mass="1.008"
annotation=""/>
</atomTypes>
<parameters>
</parameters>
</forcefield>
</ffml>

> <Initial Potential Energy>
239.24923

> <Initial RMS Gradient>
28.38131

> <Minimization Criteria>
STEEPD> Minimization exiting with gradient tolerance ( 3.0000000) satisfied.

> <CHARMm Energy>
29.91262

> <Potential Energy>
29.91262

> <RMS Gradient>
0.08299

> <Bond Energy>
7.95502

> <Angle Energy>
29.5863

> <STRBend>
1.07259

> <Dihedral Energy>
11.87229

> <OOPLane>
0.09986

> <Van der Waals Energy>
63.12879

> <Electrostatic Energy>
-83.80223

> <Hydrogen Bond Energy>
0

> <Solvation Free Energy>
0

> <HasGasteigerCharges>
true

> <REMARK99>
REMARK  99  MacroMolecule created from Mol2 file
REMARK  99  CHEMBL57710
REMARK  99  PROTEIN
REMARK  99  GASTEIGER
REMARK  99
REMARK  99

$$$$
CHEMBL4588919
  SciTegic05292516403D

 59 60  0  0  0  0            999 V2000
   19.1174  -12.6793    0.7761 C   0  0
   20.3508  -13.0050    1.6316 C   0  0
   17.7677  -12.5864    1.5543 C   0  0  2  0  0  0
   14.9319  -14.1473   -2.0058 C   0  0
   15.2413  -15.4611   -1.6698 C   0  0
   15.9971  -15.7519   -0.5424 C   0  0
   15.4177  -13.0941   -1.2158 C   0  0
   16.2117  -13.3865   -0.0919 C   0  0
   16.4675  -14.7158    0.2718 C   0  0
   17.2760  -15.0506    1.4902 C   0  0
   17.4169  -13.8305    2.3857 C   0  0
   16.7044  -12.3144    0.6106 O   0  0
   15.1214  -11.6703   -1.5943 C   0  0
   14.8249  -16.5102   -2.4324 O   0  0
   17.7910  -11.3655    2.4888 C   0  0
   21.5930  -13.2043    0.7949 C   0  0
   22.7536  -12.5155    0.8356 C   0  0
   23.9276  -12.9184   -0.0514 C   0  0
   23.0009  -11.3115    1.7057 C   0  0
   25.1079  -13.5030    0.7423 C   0  0
   26.1951  -14.0441   -0.1577 C   0  0
   27.4738  -13.6210   -0.2785 C   0  0
   28.4549  -14.3156   -1.1871 C   0  0
   28.0708  -12.4475    0.4446 C   0  0
   27.8533  -15.3201   -1.8754 O   0  0
   29.6310  -13.9959   -1.2785 O   0  0
   28.7293  -16.0222   -2.7570 C   0  0
   19.2836  -11.7297    0.2478 H   0  0
   19.0322  -13.4219   -0.0277 H   0  0
   20.4956  -12.2331    2.3904 H   0  0
   20.1880  -13.9423    2.1752 H   0  0
   14.3309  -13.9310   -2.8847 H   0  0
   16.2289  -16.7866   -0.3037 H   0  0
   16.7927  -15.8565    2.0550 H   0  0
   18.2628  -15.4107    1.1770 H   0  0
   16.4536  -13.6644    2.8890 H   0  0
   18.1523  -14.0217    3.1746 H   0  0
   16.0429  -11.1592   -1.8909 H   0  0
   14.6652  -11.1389   -0.7527 H   0  0
   14.4207  -11.6162   -2.4342 H   0  0
   14.1921  -16.1870   -3.0965 H   0  0
   16.8035  -11.2000    2.9359 H   0  0
   18.0306  -10.4522    1.9320 H   0  0
   18.5162  -11.4790    3.3002 H   0  0
   21.5259  -14.0526    0.1120 H   0  0
   23.5964  -13.6530   -0.7976 H   0  0
   24.2602  -12.0426   -0.6235 H   0  0
   23.4776  -10.5158    1.1231 H   0  0
   23.6606  -11.5717    2.5390 H   0  0
   22.0846  -10.8842    2.1194 H   0  0
   25.4965  -12.7560    1.4396 H   0  0
   24.7506  -14.3352    1.3629 H   0  0
   25.8584  -14.9042   -0.7393 H   0  0
   28.8258  -12.7876    1.1611 H   0  0
   27.3339  -11.8564    0.9926 H   0  0
   28.5501  -11.7644   -0.2656 H   0  0
   28.1520  -16.8065   -3.2545 H   0  0
   29.5418  -16.4942   -2.1956 H   0  0
   29.1263  -15.3470   -3.5216 H   0  0
  1  2  1  0
  1  3  1  0
  1 28  1  0
  1 29  1  0
  2 16  1  0
  2 30  1  0
  2 31  1  0
  3 12  1  0
  3 15  1  0
  4  5  2  0
  4 32  1  0
  5  6  1  0
  5 14  1  0
  6  9  2  0
  6 33  1  0
  7  4  1  0
  7 13  1  0
  8  7  2  0
  8  9  1  0
  8 12  1  0
  9 10  1  0
 10 11  1  0
 10 34  1  0
 10 35  1  0
 11  3  1  0
 11 36  1  0
 11 37  1  0
 13 38  1  0
 13 39  1  0
 13 40  1  0
 14 41  1  0
 15 42  1  0
 15 43  1  0
 15 44  1  0
 16 17  2  0
 16 45  1  0
 17 18  1  0
 17 19  1  0
 18 20  1  0
 18 46  1  0
 18 47  1  0
 19 48  1  0
 19 49  1  0
 19 50  1  0
 20 21  1  0
 20 51  1  0
 20 52  1  0
 21 22  2  0
 21 53  1  0
 22 23  1  0
 22 24  1  0
 23 25  1  0
 23 26  2  0
 24 54  1  0
 24 55  1  0
 24 56  1  0
 25 27  1  0
 27 57  1  0
 27 58  1  0
 27 59  1  0
M  END
> <Name>
CHEMBL4588919

> <Clean Energy>
14.6034

> <chembl_id>
CHEMBL4588919

> <chembl_pref_name>
None

> <efficacy>
0.35

> <Forcefield>
MMFF

> <ForcefieldBase>
MMFF

> <ForcefieldFFML>
<?xml version="1.0" encoding="UTF-8"?>
<!DOCTYPE ffml SYSTEM "Ffml.dtd">
<ffml version="1.0">
<forcefield name="MMFF" derivedFrom="MMFF" base="MMFF">
<atomTypes>
<atomType
name="C100"
element="C"
mass="12.011"
annotation=""/>
<atomType
name="O101"
element="O"
mass="16"
annotation=""/>
<atomType
name="H102"
element="H"
mass="1.008"
annotation=""/>
</atomTypes>
<parameters>
</parameters>
</forcefield>
</ffml>

> <Initial Potential Energy>
119.32555

> <Initial RMS Gradient>
19.89577

> <Minimization Criteria>
CONJUG> Minimization exiting with gradient tolerance ( 0.0100000) satisfied.

> <CHARMm Energy>
37.72819

> <Potential Energy>
37.72819

> <RMS Gradient>
0.00998

> <Bond Energy>
6.27257

> <Angle Energy>
15.19039

> <STRBend>
0.7746

> <Dihedral Energy>
-9.43184

> <OOPLane>
0.0265

> <Van der Waals Energy>
51.61113

> <Electrostatic Energy>
-26.71516

> <Hydrogen Bond Energy>
0

> <Solvation Free Energy>
0

> <HasGasteigerCharges>
true

> <REMARK99>
REMARK  99  MacroMolecule created from Mol2 file
REMARK  99  CHEMBL4588919
REMARK  99  PROTEIN
REMARK  99  GASTEIGER
REMARK  99
REMARK  99

$$$$
CHEMBL1089859
  SciTegic05292516403D

 63 67  0  0  0  0            999 V2000
    7.3143   -5.2445   -0.7563 C   0  0
    6.1579   -4.4626   -0.6581 C   0  0
    4.8929   -6.5036   -0.3807 C   0  0
    4.9412   -5.0940   -0.5025 C   0  0
    3.5878   -6.9262   -0.1672 O   0  0
    2.7953   -5.7805   -0.0898 C   0  0
    3.5311   -4.5722   -0.5992 C   0  0  1  0  0  0
    3.1407   -3.3533    0.2433 C   0  0
    1.6988   -3.2414    0.6721 C   0  0
    1.0103   -4.4019    0.7792 C   0  0
    1.6195   -5.7012    0.5469 C   0  0
   -0.3064   -4.4988    1.1794 O   0  0
    1.0082   -1.9385    0.9533 C   0  0
    1.7737   -0.6510    0.8027 C   0  0
   -0.1809   -1.9254    1.2900 O   0  0
    3.9574   -2.4623    0.4849 O   0  0
    3.1838   -4.2804   -2.0688 C   0  0
    6.2815   -3.1084   -0.7550 O   0  0
    7.2527   -6.6534   -0.6838 C   0  0
    6.0345   -7.3032   -0.4928 C   0  0
    6.0191   -8.7857   -0.5528 C   0  0
    7.2425   -9.4055   -0.7908 N   0  0
    8.4384   -8.6957   -0.4416 C   0  0  1  0  0  0
    8.4323   -7.3248   -0.8677 O   0  0
    4.9656   -9.3851   -0.3679 O   0  0
    7.2772  -10.7057   -1.2639 C   0  0
    8.3001  -11.4942   -0.7827 N   0  0
    6.4827  -11.1001   -2.1146 O   0  0
    8.4803  -12.8564   -1.2481 C   0  0
    9.6307  -13.5121   -0.5369 C   0  0
    9.4084  -14.3930    0.5277 C   0  0
   10.4860  -14.9683    1.2021 C   0  0
   11.7970  -14.6616    0.8294 C   0  0
   12.0340  -13.7759   -0.2216 C   0  0
   10.9512  -13.2137   -0.9025 C   0  0
    8.6269   -8.8238    0.9686 O   0  0
    9.9776   -8.5888    1.3445 C   0  0
   13.2593  -13.3762   -0.6785 O   0  0
   14.3912  -13.8711    0.0219 C   0  0
    8.2712   -4.7512   -0.9124 H   0  0
    1.1439   -6.5856    0.9608 H   0  0
   -0.6742   -3.5967    1.3367 H   0  0
    1.0824    0.1918    0.9021 H   0  0
    2.2285   -0.5918   -0.1893 H   0  0
    2.5289   -0.5694    1.5880 H   0  0
    2.1310   -3.9993   -2.1901 H   0  0
    3.3691   -5.1458   -2.7170 H   0  0
    3.7840   -3.4474   -2.4547 H   0  0
    5.5342   -2.6618   -0.2966 H   0  0
    9.2815   -9.1674   -0.9616 H   0  0
    8.6422  -11.2563    0.1395 H   0  0
    7.5470  -13.4065   -1.0794 H   0  0
    8.6512  -12.8391   -2.3309 H   0  0
    8.3950  -14.6405    0.8378 H   0  0
   10.3020  -15.6560    2.0239 H   0  0
   12.6064  -15.1317    1.3783 H   0  0
   11.1466  -12.5297   -1.7263 H   0  0
   10.0495   -8.6727    2.4323 H   0  0
   10.2932   -7.5830    1.0517 H   0  0
   10.6365   -9.3385    0.8957 H   0  0
   15.2846  -13.4413   -0.4412 H   0  0
   14.4642  -14.9603   -0.0651 H   0  0
   14.3778  -13.5569    1.0710 H   0  0
  1  2  2  0
  1 40  1  0
  2  4  1  0
  2 18  1  0
  3  4  2  0
  3 20  1  0
  4  7  1  0
  5  3  1  0
  6  5  1  0
  6  7  1  0
  7  8  1  0
  7 17  1  0
  8  9  1  0
  8 16  2  0
  9 10  2  0
  9 13  1  0
 10 11  1  0
 10 12  1  0
 11  6  2  0
 11 41  1  0
 12 42  1  0
 13 14  1  0
 13 15  2  0
 14 43  1  0
 14 44  1  0
 14 45  1  0
 17 46  1  0
 17 47  1  0
 17 48  1  0
 18 49  1  0
 19  1  1  0
 19 20  2  0
 19 24  1  0
 20 21  1  0
 21 22  1  0
 21 25  2  0
 22 23  1  0
 22 26  1  0
 23 24  1  0
 23 36  1  0
 23 50  1  0
 26 27  1  0
 26 28  2  0
 27 29  1  0
 27 51  1  0
 29 30  1  0
 29 52  1  0
 29 53  1  0
 30 31  2  0
 31 32  1  0
 31 54  1  0
 32 33  2  0
 32 55  1  0
 33 34  1  0
 33 56  1  0
 34 35  2  0
 34 38  1  0
 35 30  1  0
 35 57  1  0
 36 37  1  0
 37 58  1  0
 37 59  1  0
 37 60  1  0
 38 39  1  0
 39 61  1  0
 39 62  1  0
 39 63  1  0
M  END
> <Name>
CHEMBL1089859

> <Clean Energy>
67.540001

> <chembl_id>
CHEMBL1089859

> <chembl_pref_name>
None

> <efficacy>
0.378947368

> <Forcefield>
MMFF

> <ForcefieldBase>
MMFF

> <ForcefieldFFML>
<?xml version="1.0" encoding="UTF-8"?>
<!DOCTYPE ffml SYSTEM "Ffml.dtd">
<ffml version="1.0">
<forcefield name="MMFF" derivedFrom="MMFF" base="MMFF">
<atomTypes>
<atomType
name="C100"
element="C"
mass="12.011"
annotation=""/>
<atomType
name="O101"
element="O"
mass="16"
annotation=""/>
<atomType
name="N102"
element="N"
mass="14.007"
annotation=""/>
<atomType
name="H103"
element="H"
mass="1.008"
annotation=""/>
</atomTypes>
<parameters>
</parameters>
</forcefield>
</ffml>

> <Initial Potential Energy>
49.7317

> <Initial RMS Gradient>
25.49753

> <Minimization Criteria>
STEEPD> Minimization exiting with gradient tolerance ( 3.0000000) satisfied.

> <CHARMm Energy>
-52.22614

> <Potential Energy>
-52.22614

> <RMS Gradient>
0.03986

> <Bond Energy>
7.36202

> <Angle Energy>
35.91982

> <STRBend>
-0.036

> <Dihedral Energy>
19.75891

> <OOPLane>
1.07581

> <Van der Waals Energy>
74.03802

> <Electrostatic Energy>
-190.34473

> <Hydrogen Bond Energy>
0

> <Solvation Free Energy>
0

> <HasGasteigerCharges>
true

> <REMARK99>
REMARK  99  MacroMolecule created from Mol2 file
REMARK  99  CHEMBL1089859
REMARK  99  PROTEIN
REMARK  99  GASTEIGER
REMARK  99
REMARK  99

$$$$
CHEMBL4866568
  SciTegic05292516403D

 35 37  0  0  0  0            999 V2000
   44.3906  -27.9460   -0.0334 C   0  0
   45.6209  -27.2740   -0.0411 C   0  0
   45.6963  -25.8763   -0.0303 C   0  0
   44.5007  -25.1296   -0.0225 C   0  0
   43.2275  -27.1706   -0.0203 C   0  0
   43.2548  -25.7838   -0.0153 C   0  0
   41.9047  -25.3436   -0.0058 C   0  0
   41.0628  -26.4472   -0.0049 C   0  0
   41.9041  -27.5447   -0.0133 N   0  0
   46.9968  -25.1024   -0.0538 C   0  0
   48.2835  -25.9081    0.1300 C   0  0
   49.4858  -24.9963    0.1422 C   0  0
   50.6472  -25.6742    0.2915 O   0  0
   49.4465  -23.7818    0.0316 O   0  0
   39.5878  -26.5364    0.0032 C   0  0
   38.7770  -25.3854    0.0118 C   0  0
   37.3818  -25.4776    0.0214 C   0  0
   36.7576  -26.7213    0.0221 C   0  0
   37.5360  -27.8750    0.0127 C   0  0
   38.9345  -27.7829    0.0032 C   0  0
   39.3323  -24.1621    0.0114 F   0  0
   36.4146  -24.0523    0.0329 Cl  0  0
   44.3512  -29.0304   -0.0414 H   0  0
   46.5211  -27.8820   -0.0582 H   0  0
   44.5313  -24.0423   -0.0233 H   0  0
   41.5935  -24.3070   -0.0008 H   0  0
   41.6059  -28.5073   -0.0158 H   0  0
   47.0477  -24.5645   -1.0101 H   0  0
   46.9473  -24.3419    0.7375 H   0  0
   48.2575  -26.4533    1.0802 H   0  0
   48.4066  -26.6197   -0.6941 H   0  0
   50.5351  -26.6399    0.3694 H   0  0
   35.6724  -26.7965    0.0299 H   0  0
   37.0544  -28.8512    0.0128 H   0  0
   39.4909  -28.7150   -0.0045 H   0  0
  1  2  2  0
  1 23  1  0
  2  3  1  0
  2 24  1  0
  3  4  2  0
  3 10  1  0
  4  6  1  0
  4 25  1  0
  5  1  1  0
  5  6  2  0
  6  7  1  0
  7  8  2  0
  7 26  1  0
  8  9  1  0
  8 15  1  0
  9  5  1  0
  9 27  1  0
 10 11  1  0
 10 28  1  0
 10 29  1  0
 11 12  1  0
 11 30  1  0
 11 31  1  0
 12 13  1  0
 12 14  2  0
 13 32  1  0
 15 16  2  0
 16 17  1  0
 16 21  1  0
 17 18  2  0
 17 22  1  0
 18 19  1  0
 18 33  1  0
 19 20  2  0
 19 34  1  0
 20 15  1  0
 20 35  1  0
M  END
> <Name>
CHEMBL4866568

> <Clean Energy>
19.289301

> <chembl_id>
CHEMBL4866568

> <chembl_pref_name>
None

> <efficacy>
0.182

> <Forcefield>
MMFF

> <ForcefieldBase>
MMFF

> <ForcefieldFFML>
<?xml version="1.0" encoding="UTF-8"?>
<!DOCTYPE ffml SYSTEM "Ffml.dtd">
<ffml version="1.0">
<forcefield name="MMFF" derivedFrom="MMFF" base="MMFF">
<atomTypes>
<atomType
name="C100"
element="C"
mass="12.011"
annotation=""/>
<atomType
name="N101"
element="N"
mass="14.007"
annotation=""/>
<atomType
name="O102"
element="O"
mass="16"
annotation=""/>
<atomType
name="F103"
element="F"
mass="18.998"
annotation=""/>
<atomType
name="Cl104"
element="Cl"
mass="35.453"
annotation=""/>
<atomType
name="H105"
element="H"
mass="1.008"
annotation=""/>
</atomTypes>
<parameters>
</parameters>
</forcefield>
</ffml>

> <Initial Potential Energy>
71.58341

> <Initial RMS Gradient>
33.44249

> <Minimization Criteria>
STEEPD> Minimization exiting with gradient tolerance ( 3.0000000) satisfied.

> <CHARMm Energy>
27.56634

> <Potential Energy>
27.56634

> <RMS Gradient>
0.06398

> <Bond Energy>
4.7189

> <Angle Energy>
4.85667

> <STRBend>
-0.46154

> <Dihedral Energy>
-5.02435

> <OOPLane>
0.00292

> <Van der Waals Energy>
37.56782

> <Electrostatic Energy>
-14.09408

> <Hydrogen Bond Energy>
0

> <Solvation Free Energy>
0

> <HasGasteigerCharges>
true

> <REMARK99>
REMARK  99  MacroMolecule created from Mol2 file
REMARK  99  CHEMBL4866568
REMARK  99  PROTEIN
REMARK  99  GASTEIGER
REMARK  99
REMARK  99

$$$$
CHEMBL517436
  SciTegic05292516403D

 55 58  0  0  0  0            999 V2000
    4.2010  -14.6979    0.6251 C   0  0
    3.8281  -15.8192   -0.1159 C   0  0
    4.7997  -16.6492   -0.6665 C   0  0
    5.5049  -14.3327    0.8356 N   0  0
    6.4249  -15.1584    0.2777 C   0  0
    6.1422  -16.3126   -0.4491 C   0  0
    7.3796  -16.9167   -0.7522 C   0  0
    8.4055  -16.1332   -0.2585 C   0  0
    7.8094  -15.0242    0.3370 N   0  0
    9.8740  -16.3725   -0.3145 C   0  0
    8.5071  -13.9348    1.0378 C   0  0
    9.5696  -13.2394    0.1986 C   0  0
   10.9425  -13.3231    0.5287 C   0  0
   11.9309  -12.7696   -0.3040 C   0  0
   11.5373  -12.1326   -1.4857 C   0  0
   10.1791  -11.9726   -1.7823 C   0  0
    9.2021  -12.5240   -0.9486 C   0  0
    7.5436  -18.0919   -1.4017 O   0  0
    7.9315  -19.2173   -0.7075 C   0  0
    8.5110  -20.2435   -1.4590 C   0  0
    8.9292  -21.4202   -0.8322 C   0  0
    8.7323  -21.5736    0.5397 C   0  0
    8.1484  -20.5582    1.2939 C   0  0
    7.7454  -19.3777    0.6701 C   0  0
   13.2392  -13.0549    0.0167 O   0  0
   14.0871  -11.9154    0.3066 C   0  0  2  0  0  0
   15.5272  -12.2671   -0.0883 C   0  0
   14.0366  -11.6381    1.8038 C   0  0
   15.6667  -13.5302   -0.5681 O   0  0
   16.4856  -11.5132    0.0323 O   0  0
    9.1900  -23.0372    1.3132 Cl  0  0
   12.6732  -11.6271   -2.6788 Cl  0  0
    3.0845  -13.8587    1.2540 C   0  0
    2.4994  -14.4647    2.3309 F   0  0
    3.5209  -12.6427    1.6934 F   0  0
    2.0534  -13.6011    0.3920 F   0  0
    2.7791  -16.0610   -0.2563 H   0  0
    4.5180  -17.5415   -1.2207 H   0  0
   10.3422  -15.7238   -1.0602 H   0  0
   10.1034  -17.4024   -0.6027 H   0  0
   10.3387  -16.2065    0.6617 H   0  0
    7.7667  -13.1959    1.3628 H   0  0
    8.9448  -14.3849    1.9363 H   0  0
   11.2525  -13.8716    1.4169 H   0  0
    9.8744  -11.4563   -2.6917 H   0  0
    8.1520  -12.4319   -1.2246 H   0  0
    8.6192  -20.1420   -2.5360 H   0  0
    9.3850  -22.2159   -1.4176 H   0  0
    7.9895  -20.6899    2.3611 H   0  0
    7.2694  -18.6068    1.2693 H   0  0
   13.7925  -11.0268   -0.2589 H   0  0
   14.7074  -10.8185    2.0812 H   0  0
   14.3269  -12.5265    2.3761 H   0  0
   13.0208  -11.3754    2.1167 H   0  0
   14.7935  -13.9795   -0.5904 H   0  0
  1  2  2  0
  1 33  1  0
  2  3  1  0
  2 37  1  0
  3  6  2  0
  3 38  1  0
  4  1  1  0
  5  4  2  0
  5  6  1  0
  6  7  1  0
  7  8  2  0
  7 18  1  0
  8  9  1  0
  8 10  1  0
  9  5  1  0
  9 11  1  0
 10 39  1  0
 10 40  1  0
 10 41  1  0
 11 12  1  0
 11 42  1  0
 11 43  1  0
 12 13  2  0
 13 14  1  0
 13 44  1  0
 14 15  2  0
 14 25  1  0
 15 16  1  0
 15 32  1  0
 16 17  2  0
 16 45  1  0
 17 12  1  0
 17 46  1  0
 18 19  1  0
 19 20  2  0
 20 21  1  0
 20 47  1  0
 21 22  2  0
 21 48  1  0
 22 23  1  0
 22 31  1  0
 23 24  2  0
 23 49  1  0
 24 19  1  0
 24 50  1  0
 25 26  1  0
 26 27  1  0
 26 28  1  0
 26 51  1  0
 27 29  1  0
 27 30  2  0
 28 52  1  0
 28 53  1  0
 28 54  1  0
 29 55  1  0
 33 34  1  0
 33 35  1  0
 33 36  1  0
M  END
> <Name>
CHEMBL517436

> <Clean Energy>
115.961998

> <chembl_id>
CHEMBL517436

> <chembl_pref_name>
None

> <efficacy>
0.26

> <Forcefield>
MMFF

> <ForcefieldBase>
MMFF

> <ForcefieldFFML>
<?xml version="1.0" encoding="UTF-8"?>
<!DOCTYPE ffml SYSTEM "Ffml.dtd">
<ffml version="1.0">
<forcefield name="MMFF" derivedFrom="MMFF" base="MMFF">
<atomTypes>
<atomType
name="C100"
element="C"
mass="12.011"
annotation=""/>
<atomType
name="N101"
element="N"
mass="14.007"
annotation=""/>
<atomType
name="O102"
element="O"
mass="16"
annotation=""/>
<atomType
name="Cl103"
element="Cl"
mass="35.453"
annotation=""/>
<atomType
name="F104"
element="F"
mass="18.998"
annotation=""/>
<atomType
name="H105"
element="H"
mass="1.008"
annotation=""/>
</atomTypes>
<parameters>
</parameters>
</forcefield>
</ffml>

> <Initial Potential Energy>
293.05855

> <Initial RMS Gradient>
32.80109

> <Minimization Criteria>
STEEPD> Minimization exiting with gradient tolerance ( 3.0000000) satisfied.

> <CHARMm Energy>
150.79585

> <Potential Energy>
150.79585

> <RMS Gradient>
0.07121

> <Bond Energy>
7.90853

> <Angle Energy>
12.31679

> <STRBend>
1.90311

> <Dihedral Energy>
14.64747

> <OOPLane>
0.30351

> <Van der Waals Energy>
58.12501

> <Electrostatic Energy>
55.59144

> <Hydrogen Bond Energy>
0

> <Solvation Free Energy>
0

> <HasGasteigerCharges>
true

> <REMARK99>
REMARK  99  MacroMolecule created from Mol2 file
REMARK  99  CHEMBL517436
REMARK  99  PROTEIN
REMARK  99  GASTEIGER
REMARK  99
REMARK  99

$$$$
CHEMBL574607
  SciTegic05292516403D

 51 53  0  0  0  0            999 V2000
   -1.1278  -27.3561    1.3612 C   0  0
   -0.1341  -27.6781    0.4286 C   0  0
    1.1343  -27.0927    0.5024 C   0  0
    1.4205  -26.1683    1.5040 C   0  0
    0.4361  -25.8578    2.4468 C   0  0
   -0.8319  -26.4400    2.3753 C   0  0
    2.5981  -25.4982    1.6787 O   0  0
    3.6116  -25.5939    0.6593 C   0  0  1  0  0  0
    4.2520  -24.2052    0.6035 C   0  0
    4.6407  -26.6585    1.0643 C   0  0
    5.1076  -27.4941   -0.1068 C   0  0
    4.5567  -28.7630   -0.3356 C   0  0
    4.9584  -29.5249   -1.4340 C   0  0
    5.9190  -29.0291   -2.3120 C   0  0
    6.4800  -27.7730   -2.0897 C   0  0
    6.0781  -27.0086   -0.9926 C   0  0
    3.4300  -23.2175    1.0466 O   0  0
    5.3712  -23.9627    0.1748 O   0  0
   -2.5028  -27.9660    1.2517 C   0  0
   -3.4324  -27.1078    0.3885 C   0  0
   -4.7966  -27.7831    0.2204 C   0  0
   -5.8664  -26.9977   -0.5093 C   0  0
   -5.5961  -25.8592   -1.2821 C   0  0
   -6.6245  -25.1840   -1.9454 C   0  0
   -7.9362  -25.6419   -1.8532 C   0  0
   -8.2216  -26.7779   -1.1023 C   0  0
   -7.1946  -27.4530   -0.4383 C   0  0
   -0.3425  -28.3893   -0.3687 H   0  0
    1.8671  -27.3911   -0.2398 H   0  0
    0.6558  -25.1537    3.2470 H   0  0
   -1.5857  -26.1718    3.1138 H   0  0
    3.1795  -25.7457   -0.3364 H   0  0
    5.5184  -26.2099    1.5476 H   0  0
    4.2151  -27.3289    1.8228 H   0  0
    3.8061  -29.1687    0.3400 H   0  0
    4.5198  -30.5050   -1.6030 H   0  0
    6.2427  -29.6236   -3.1632 H   0  0
    7.2405  -27.3898   -2.7671 H   0  0
    6.5415  -26.0353   -0.8340 H   0  0
    2.5835  -23.6057    1.3647 H   0  0
   -2.4186  -28.9758    0.8301 H   0  0
   -2.9270  -28.0927    2.2558 H   0  0
   -3.5555  -26.1197    0.8502 H   0  0
   -2.9744  -26.9455   -0.5955 H   0  0
   -4.6594  -28.7332   -0.3119 H   0  0
   -5.1839  -28.0242    1.2193 H   0  0
   -4.5819  -25.4784   -1.3835 H   0  0
   -6.4119  -24.2982   -2.5389 H   0  0
   -8.7358  -25.1173   -2.3705 H   0  0
   -9.2442  -27.1415   -1.0350 H   0  0
   -7.4490  -28.3428    0.1365 H   0  0
  1  2  2  0
  1 19  1  0
  2  3  1  0
  2 28  1  0
  3  4  2  0
  3 29  1  0
  4  5  1  0
  4  7  1  0
  5  6  2  0
  5 30  1  0
  6  1  1  0
  6 31  1  0
  7  8  1  0
  8  9  1  0
  8 10  1  0
  8 32  1  0
  9 17  1  0
  9 18  2  0
 10 11  1  0
 10 33  1  0
 10 34  1  0
 11 12  2  0
 12 13  1  0
 12 35  1  0
 13 14  2  0
 13 36  1  0
 14 15  1  0
 14 37  1  0
 15 16  2  0
 15 38  1  0
 16 11  1  0
 16 39  1  0
 17 40  1  0
 19 20  1  0
 19 41  1  0
 19 42  1  0
 20 43  1  0
 20 44  1  0
 21 20  1  0
 21 22  1  0
 21 45  1  0
 21 46  1  0
 22 23  2  0
 23 24  1  0
 23 47  1  0
 24 25  2  0
 24 48  1  0
 25 26  1  0
 25 49  1  0
 26 27  2  0
 26 50  1  0
 27 22  1  0
 27 51  1  0
M  END
> <Name>
CHEMBL574607

> <Clean Energy>
11.9552

> <chembl_id>
CHEMBL574607

> <chembl_pref_name>
None

> <efficacy>
0.3

> <Forcefield>
MMFF

> <ForcefieldBase>
MMFF

> <ForcefieldFFML>
<?xml version="1.0" encoding="UTF-8"?>
<!DOCTYPE ffml SYSTEM "Ffml.dtd">
<ffml version="1.0">
<forcefield name="MMFF" derivedFrom="MMFF" base="MMFF">
<atomTypes>
<atomType
name="C100"
element="C"
mass="12.011"
annotation=""/>
<atomType
name="O101"
element="O"
mass="16"
annotation=""/>
<atomType
name="H102"
element="H"
mass="1.008"
annotation=""/>
</atomTypes>
<parameters>
</parameters>
</forcefield>
</ffml>

> <Initial Potential Energy>
146.7861

> <Initial RMS Gradient>
29.29648

> <Minimization Criteria>
CONJUG> Minimization exiting with gradient tolerance ( 0.0100000) satisfied.

> <CHARMm Energy>
66.50328

> <Potential Energy>
66.50328

> <RMS Gradient>
0.00993

> <Bond Energy>
5.86775

> <Angle Energy>
11.88171

> <STRBend>
0.22498

> <Dihedral Energy>
-2.19929

> <OOPLane>
0.0426

> <Van der Waals Energy>
58.84839

> <Electrostatic Energy>
-8.16287

> <Hydrogen Bond Energy>
0

> <Solvation Free Energy>
0

> <HasGasteigerCharges>
true

> <REMARK99>
REMARK  99  MacroMolecule created from Mol2 file
REMARK  99  CHEMBL574607
REMARK  99  PROTEIN
REMARK  99  GASTEIGER
REMARK  99
REMARK  99

$$$$
CHEMBL5075652
  SciTegic05292516403D

 58 61  0  0  0  0            999 V2000
   29.1583   -7.0366    2.3474 F   0  0
   30.0981   -7.1860    1.3733 C   0  0
   29.9635   -6.1080    0.5556 F   0  0
   41.3286  -12.8030   -0.5936 O   0  0
   39.9104  -12.7329   -0.8869 S   0  0
   39.3794  -12.8712   -2.2290 O   0  0
   26.5584  -11.7642   -1.7810 O   0  0
   26.1671  -11.3775   -0.4379 S   0  0
   25.0602  -12.0613    0.2136 O   0  0
   28.9219   -9.3725    0.9432 C   0  0
   28.7079  -10.5747    0.2516 C   0  0
   29.5732  -10.9012   -0.7946 C   0  0
   30.6544  -10.0716   -1.1061 C   0  0
   30.9029   -8.8821   -0.3904 C   0  0
   29.9914   -8.5044    0.6233 C   0  0
   32.1375   -8.0683   -0.7496 C   0  0
   33.3596   -8.8277   -0.5751 N   0  0
   34.5984   -8.2300   -0.6722 C   0  0
   35.7765   -9.1351   -0.5805 C   0  0
   34.7876   -7.0258   -0.8153 O   0  0
   35.7961  -10.3868   -1.2016 C   0  0
   36.9487  -11.1865   -1.1829 C   0  0
   36.9194   -8.6587    0.0770 C   0  0
   38.0864   -9.4494    0.1172 C   0  0
   38.0926  -10.6959   -0.5237 C   0  0
   39.3733  -11.1949   -0.3608 N   0  0
   40.1412  -10.3535    0.4044 C   0  0
   39.3719   -9.2520    0.6985 C   0  0
   39.0701  -13.8693    0.1806 C   0  0
   39.1029  -13.6842    1.5685 C   0  0
   38.4391  -14.5892    2.3987 C   0  0
   37.7705  -15.6810    1.8432 C   0  0
   37.7756  -15.8686    0.4639 C   0  0
   38.4025  -14.9609   -0.3796 C   0  0
   37.1810  -16.9514   -0.0554 F   0  0
   27.5861  -11.5032    0.6512 C   0  0
   25.7591   -9.6467   -0.4673 C   0  0
   31.3037   -7.0580    1.9970 F   0  0
   28.2423   -9.0957    1.7519 H   0  0
   29.3990  -11.8041   -1.3810 H   0  0
   31.3210  -10.3656   -1.9181 H   0  0
   32.0756   -7.7662   -1.8020 H   0  0
   32.2179   -7.1491   -0.1637 H   0  0
   33.2959   -9.8125   -0.3571 H   0  0
   34.9283  -10.7386   -1.7560 H   0  0
   36.9673  -12.1345   -1.7151 H   0  0
   36.9241   -7.6706    0.5336 H   0  0
   41.1681  -10.5942    0.6528 H   0  0
   39.6848   -8.3871    1.2701 H   0  0
   39.6775  -12.8772    2.0181 H   0  0
   38.4868  -14.4774    3.4802 H   0  0
   37.2786  -16.4095    2.4806 H   0  0
   38.3824  -15.1289   -1.4525 H   0  0
   27.9227  -12.5451    0.6326 H   0  0
   27.2367  -11.2852    1.6661 H   0  0
   25.6275   -9.2975    0.5584 H   0  0
   24.8237   -9.5318   -1.0197 H   0  0
   26.5515   -9.0939   -0.9737 H   0  0
  2  1  1  0
  2 38  1  0
  3  2  1  0
  5  4  2  0
  5 29  1  0
  6  5  2  0
  8  7  2  0
  8 37  1  0
  9  8  2  0
 10 11  2  0
 10 39  1  0
 11 12  1  0
 11 36  1  0
 12 13  2  0
 12 40  1  0
 13 14  1  0
 13 41  1  0
 14 15  2  0
 14 16  1  0
 15  2  1  0
 15 10  1  0
 16 17  1  0
 16 42  1  0
 16 43  1  0
 17 18  1  0
 17 44  1  0
 18 19  1  0
 18 20  2  0
 19 21  2  0
 21 22  1  0
 21 45  1  0
 22 25  2  0
 22 46  1  0
 23 19  1  0
 23 47  1  0
 24 23  2  0
 24 25  1  0
 25 26  1  0
 26  5  1  0
 26 27  1  0
 27 28  2  0
 27 48  1  0
 28 24  1  0
 28 49  1  0
 29 30  2  0
 30 31  1  0
 30 50  1  0
 31 32  2  0
 31 51  1  0
 32 33  1  0
 32 52  1  0
 33 34  2  0
 33 35  1  0
 34 29  1  0
 34 53  1  0
 36  8  1  0
 36 54  1  0
 36 55  1  0
 37 56  1  0
 37 57  1  0
 37 58  1  0
M  END
> <Name>
CHEMBL5075652

> <Clean Energy>
57.243099

> <chembl_id>
CHEMBL5075652

> <chembl_pref_name>
None

> <efficacy>
0.150721747

> <Forcefield>
MMFF

> <ForcefieldBase>
MMFF

> <ForcefieldFFML>
<?xml version="1.0" encoding="UTF-8"?>
<!DOCTYPE ffml SYSTEM "Ffml.dtd">
<ffml version="1.0">
<forcefield name="MMFF" derivedFrom="MMFF" base="MMFF">
<atomTypes>
<atomType
name="F100"
element="F"
mass="18.998"
annotation=""/>
<atomType
name="C101"
element="C"
mass="12.011"
annotation=""/>
<atomType
name="O102"
element="O"
mass="16"
annotation=""/>
<atomType
name="S103"
element="S"
mass="32.066"
annotation=""/>
<atomType
name="N104"
element="N"
mass="14.007"
annotation=""/>
<atomType
name="H105"
element="H"
mass="1.008"
annotation=""/>
</atomTypes>
<parameters>
</parameters>
</forcefield>
</ffml>

> <Initial Potential Energy>
566.65192

> <Initial RMS Gradient>
190.35928

> <Minimization Criteria>
CONJUG> Minimization exiting with gradient tolerance ( 0.0100000) satisfied.

> <CHARMm Energy>
151.17491

> <Potential Energy>
151.17491

> <RMS Gradient>
0.00851

> <Bond Energy>
7.55336

> <Angle Energy>
13.56937

> <STRBend>
1.08141

> <Dihedral Energy>
4.8039

> <OOPLane>
0.11766

> <Van der Waals Energy>
54.51902

> <Electrostatic Energy>
69.5302

> <Hydrogen Bond Energy>
0

> <Solvation Free Energy>
0

> <HasGasteigerCharges>
true

> <REMARK99>
REMARK  99  MacroMolecule created from Mol2 file
REMARK  99  CHEMBL5075652
REMARK  99  PROTEIN
REMARK  99  GASTEIGER
REMARK  99
REMARK  99

$$$$
CHEMBL4865460
  SciTegic05292516403D

 41 43  0  0  0  0            999 V2000
   41.9132  -18.6989    0.4869 C   0  0
   43.2225  -18.3000    0.1935 C   0  0
   43.4843  -17.1175   -0.5036 C   0  0
   42.4145  -16.3094   -0.9233 C   0  0
   40.8609  -17.8677    0.0730 C   0  0
   41.0927  -16.6796   -0.6180 C   0  0
   39.8334  -16.0805   -0.8615 C   0  0
   38.8527  -16.8894   -0.3188 C   0  0
   39.4894  -17.9952    0.2079 N   0  0
   44.9016  -16.6800   -0.7794 C   0  0
   45.2734  -15.4817    0.0900 C   0  0
   46.6524  -14.9803   -0.2333 C   0  0
   46.9050  -13.7710    0.3232 O   0  0
   47.4863  -15.5766   -0.8954 O   0  0
   37.4076  -16.6796   -0.3422 C   0  0
   36.6847  -16.2820    0.8026 C   0  0
   35.2988  -16.1061    0.6970 C   0  0
   34.6593  -16.2964   -0.5249 C   0  0
   35.3714  -16.6598   -1.6596 C   0  0
   36.7448  -16.8536   -1.5681 C   0  0
   38.8459  -19.1488    0.8019 C   0  0
   37.3642  -16.0414    2.1229 C   0  0
   33.3346  -16.1199   -0.6076 F   0  0
   41.7300  -19.6235    1.0246 H   0  0
   44.0433  -18.9347    0.5207 H   0  0
   42.5963  -15.3903   -1.4734 H   0  0
   39.6562  -15.1439   -1.3742 H   0  0
   45.5972  -17.5094   -0.5992 H   0  0
   44.9979  -16.4320   -1.8444 H   0  0
   44.5666  -14.6610   -0.0797 H   0  0
   45.2442  -15.7528    1.1514 H   0  0
   46.1443  -13.4152    0.8232 H   0  0
   34.6963  -15.8150    1.5541 H   0  0
   34.8504  -16.7926   -2.6022 H   0  0
   37.3168  -17.1332   -2.4517 H   0  0
   38.9879  -19.0971    1.8842 H   0  0
   39.3063  -20.0545    0.3979 H   0  0
   37.7814  -19.1604    0.5612 H   0  0
   36.6886  -15.5500    2.8316 H   0  0
   38.2312  -15.3842    2.0015 H   0  0
   37.6810  -16.9893    2.5671 H   0  0
  1  2  2  0
  1 24  1  0
  2  3  1  0
  2 25  1  0
  3  4  2  0
  3 10  1  0
  4  6  1  0
  4 26  1  0
  5  1  1  0
  5  6  2  0
  6  7  1  0
  7  8  2  0
  7 27  1  0
  8  9  1  0
  8 15  1  0
  9  5  1  0
  9 21  1  0
 10 11  1  0
 10 28  1  0
 10 29  1  0
 11 12  1  0
 11 30  1  0
 11 31  1  0
 12 13  1  0
 12 14  2  0
 13 32  1  0
 15 16  2  0
 16 17  1  0
 16 22  1  0
 17 18  2  0
 17 33  1  0
 18 19  1  0
 18 23  1  0
 19 20  2  0
 19 34  1  0
 20 15  1  0
 20 35  1  0
 21 36  1  0
 21 37  1  0
 21 38  1  0
 22 39  1  0
 22 40  1  0
 22 41  1  0
M  END
> <Name>
CHEMBL4865460

> <Clean Energy>
30.993601

> <chembl_id>
CHEMBL4865460

> <chembl_pref_name>
None

> <efficacy>
0.0632

> <Forcefield>
MMFF

> <ForcefieldBase>
MMFF

> <ForcefieldFFML>
<?xml version="1.0" encoding="UTF-8"?>
<!DOCTYPE ffml SYSTEM "Ffml.dtd">
<ffml version="1.0">
<forcefield name="MMFF" derivedFrom="MMFF" base="MMFF">
<atomTypes>
<atomType
name="C100"
element="C"
mass="12.011"
annotation=""/>
<atomType
name="N101"
element="N"
mass="14.007"
annotation=""/>
<atomType
name="O102"
element="O"
mass="16"
annotation=""/>
<atomType
name="F103"
element="F"
mass="18.998"
annotation=""/>
<atomType
name="H104"
element="H"
mass="1.008"
annotation=""/>
</atomTypes>
<parameters>
</parameters>
</forcefield>
</ffml>

> <Initial Potential Energy>
78.98274

> <Initial RMS Gradient>
30.87362

> <Minimization Criteria>
CONJUG> Minimization exiting with gradient tolerance ( 0.0100000) satisfied.

> <CHARMm Energy>
12.75525

> <Potential Energy>
12.75525

> <RMS Gradient>
0.00965

> <Bond Energy>
4.13897

> <Angle Energy>
3.77265

> <STRBend>
-0.42628

> <Dihedral Energy>
2.90767

> <OOPLane>
0.02957

> <Van der Waals Energy>
39.97236

> <Electrostatic Energy>
-37.6397

> <Hydrogen Bond Energy>
0

> <Solvation Free Energy>
0

> <HasGasteigerCharges>
true

> <REMARK99>
REMARK  99  MacroMolecule created from Mol2 file
REMARK  99  CHEMBL4865460
REMARK  99  PROTEIN
REMARK  99  GASTEIGER
REMARK  99
REMARK  99

$$$$
CHEMBL1641708
  SciTegic05292516403D

 56 58  0  0  0  0            999 V2000
   10.4034   -0.0864    0.8119 C   0  0
   10.0544   -1.1474   -0.0288 C   0  0
   10.8410   -1.4030   -1.1567 C   0  0
   11.9246   -0.5823   -1.4728 C   0  0
   12.2299    0.5168   -0.6620 C   0  0
   11.4853    0.7448    0.4988 C   0  0
    8.9816   -1.9867    0.1319 O   0  0
    8.1747   -1.7779    1.2836 C   0  0
   13.3800    1.3815   -1.0394 C   0  0
   14.3426    0.8237   -1.5638 O   0  0
   13.3313    2.8195   -0.7980 C   0  0
   14.4586    3.6109   -0.5869 N   0  0
   14.0777    4.9245   -0.4685 C   0  0
   12.7036    5.0026   -0.5737 C   0  0
   12.2376    3.6767   -0.7858 C   0  0
   15.8299    3.0752   -0.5331 C   0  0
   16.9056    3.9776    0.0247 C   0  0
   18.0979    4.1145   -0.5847 C   0  0
   19.2663    4.8337   -0.0426 C   0  0
   20.5101    4.2021    0.2269 C   0  0
   21.5992    4.9756    0.6744 C   0  0
   21.4545    6.3497    0.8670 C   0  0
   20.2346    6.9718    0.6210 C   0  0
   19.1483    6.2190    0.1651 C   0  0
   22.7988    7.2828    1.4060 Cl  0  0
   20.6692    2.7209    0.0655 C   0  0
   20.0151    2.0895   -0.7482 O   0  0
   21.6469    2.0987    0.8655 N   0  0
   21.6549    0.4463    1.1347 S   0  0
   21.9724   -0.2443   -0.4783 C   0  0
   20.3383    0.0618    1.5920 O   0  0
   22.8290    0.2055    1.9534 O   0  0
   11.8753    6.2347   -0.5125 C   0  0
    9.8370    0.1311    1.7123 H   0  0
   10.5869   -2.2403   -1.8047 H   0  0
   12.5312   -0.7954   -2.3511 H   0  0
   11.7374    1.5575    1.1746 H   0  0
    7.3771   -2.5270    1.2731 H   0  0
    7.7030   -0.7899    1.2612 H   0  0
    8.7528   -1.9205    2.2025 H   0  0
   14.8105    5.7083   -0.3262 H   0  0
   11.1995    3.3951   -0.9504 H   0  0
   15.7834    2.1890    0.1107 H   0  0
   16.0668    2.7650   -1.5574 H   0  0
   16.7212    4.4340    0.9934 H   0  0
   18.2713    3.6036   -1.5326 H   0  0
   22.5782    4.5339    0.8443 H   0  0
   20.1241    8.0441    0.7678 H   0  0
   18.2074    6.7261   -0.0451 H   0  0
   22.1933    2.5845    1.5701 H   0  0
   22.1589   -1.3130   -0.3481 H   0  0
   22.8596    0.2330   -0.8985 H   0  0
   21.1039   -0.1062   -1.1213 H   0  0
   10.8460    6.0012   -0.2218 H   0  0
   11.8538    6.7251   -1.4908 H   0  0
   12.2805    6.9405    0.2198 H   0  0
  1  2  2  0
  1 34  1  0
  2  3  1  0
  2  7  1  0
  3  4  2  0
  3 35  1  0
  4  5  1  0
  4 36  1  0
  5  6  2  0
  5  9  1  0
  6  1  1  0
  6 37  1  0
  7  8  1  0
  8 38  1  0
  8 39  1  0
  8 40  1  0
  9 10  2  0
  9 11  1  0
 11 12  1  0
 12 13  1  0
 12 16  1  0
 13 14  2  0
 13 41  1  0
 14 15  1  0
 14 33  1  0
 15 11  2  0
 15 42  1  0
 16 17  1  0
 16 43  1  0
 16 44  1  0
 17 18  2  0
 17 45  1  0
 18 19  1  0
 18 46  1  0
 19 20  2  0
 20 21  1  0
 20 26  1  0
 21 22  2  0
 21 47  1  0
 22 23  1  0
 22 25  1  0
 23 24  2  0
 23 48  1  0
 24 19  1  0
 24 49  1  0
 26 27  2  0
 26 28  1  0
 28 29  1  0
 28 50  1  0
 29 30  1  0
 29 31  2  0
 29 32  2  0
 30 51  1  0
 30 52  1  0
 30 53  1  0
 33 54  1  0
 33 55  1  0
 33 56  1  0
M  END
> <Name>
CHEMBL1641708

> <Clean Energy>
21.802999

> <chembl_id>
CHEMBL1641708

> <chembl_pref_name>
None

> <efficacy>
0.180436847

> <Forcefield>
MMFF

> <ForcefieldBase>
MMFF

> <ForcefieldFFML>
<?xml version="1.0" encoding="UTF-8"?>
<!DOCTYPE ffml SYSTEM "Ffml.dtd">
<ffml version="1.0">
<forcefield name="MMFF" derivedFrom="MMFF" base="MMFF">
<atomTypes>
<atomType
name="C100"
element="C"
mass="12.011"
annotation=""/>
<atomType
name="O101"
element="O"
mass="16"
annotation=""/>
<atomType
name="N102"
element="N"
mass="14.007"
annotation=""/>
<atomType
name="Cl103"
element="Cl"
mass="35.453"
annotation=""/>
<atomType
name="S104"
element="S"
mass="32.066"
annotation=""/>
<atomType
name="H105"
element="H"
mass="1.008"
annotation=""/>
</atomTypes>
<parameters>
</parameters>
</forcefield>
</ffml>

> <Initial Potential Energy>
102.8538

> <Initial RMS Gradient>
31.74472

> <Minimization Criteria>
CONJUG> Minimization exiting with gradient tolerance ( 0.0100000) satisfied.

> <CHARMm Energy>
-20.96615

> <Potential Energy>
-20.96615

> <RMS Gradient>
0.00994

> <Bond Energy>
6.95955

> <Angle Energy>
17.59286

> <STRBend>
1.16384

> <Dihedral Energy>
10.55481

> <OOPLane>
0.12668

> <Van der Waals Energy>
55.27897

> <Electrostatic Energy>
-112.64285

> <Hydrogen Bond Energy>
0

> <Solvation Free Energy>
0

> <HasGasteigerCharges>
true

> <REMARK99>
REMARK  99  MacroMolecule created from Mol2 file
REMARK  99  CHEMBL1641708
REMARK  99  PROTEIN
REMARK  99  GASTEIGER
REMARK  99
REMARK  99

$$$$
CHEMBL2424947
  SciTegic05292516403D

 52 55  0  0  0  0            999 V2000
    3.9990  -12.6589   -0.5095 S   0  0
    4.7217  -12.9393   -1.7303 O   0  0
    3.1948  -11.4635   -0.3503 O   0  0
    6.8555  -11.1924    0.0981 C   0  0
    6.4493  -12.4569    0.5087 C   0  0
    7.4088  -13.4657    0.5816 C   0  0
    8.7245  -13.2902    0.3135 N   0  0
    9.0995  -12.0447   -0.0647 C   0  0
    8.2020  -10.9801   -0.2005 C   0  0
   10.4295  -11.8170   -0.3537 O   0  0
   11.3545  -12.7895    0.1582 C   0  0
   11.7605  -13.7680   -0.9461 C   0  0
   12.8771  -14.7089   -0.4879 C   0  0
   13.9940  -13.9367    0.0643 N   0  0
   13.6535  -12.9819    1.1272 C   0  0
   12.5833  -12.0195    0.6401 C   0  0
   15.3125  -14.3556   -0.0574 C   0  0
   15.6836  -15.7052   -0.1565 C   0  0
   17.0244  -16.0934   -0.2659 C   0  0
   18.0269  -15.1305   -0.2889 C   0  0
   17.6905  -13.7839   -0.2141 C   0  0
   16.3493  -13.4082   -0.1036 C   0  0
    8.7058   -9.4073   -0.6965 Cl  0  0
    5.0736  -12.7284    0.8150 N   0  0
    2.9320  -14.0373   -0.2240 C   0  0
    1.5450  -13.8666   -0.2224 C   0  0
    0.7216  -14.9743   -0.0120 C   0  0
    1.2859  -16.2315    0.1899 C   0  0
    2.6658  -16.4022    0.1919 C   0  0
    3.4854  -15.2969   -0.0161 C   0  0
    4.8134  -15.4648    0.0322 F   0  0
    0.4879  -17.2884    0.3913 F   0  0
    6.1398  -10.3802    0.0134 H   0  0
    7.1430  -14.4798    0.8658 H   0  0
   10.9502  -13.3327    1.0229 H   0  0
   10.8921  -14.3504   -1.2746 H   0  0
   12.0909  -13.2024   -1.8277 H   0  0
   12.5013  -15.4075    0.2694 H   0  0
   13.1953  -15.2974   -1.3569 H   0  0
   13.2950  -13.5373    2.0034 H   0  0
   14.5144  -12.3963    1.4676 H   0  0
   12.9748  -11.3919   -0.1714 H   0  0
   12.2989  -11.3306    1.4447 H   0  0
   14.9287  -16.4850   -0.1273 H   0  0
   17.2856  -17.1468   -0.3317 H   0  0
   19.0673  -15.4300   -0.3739 H   0  0
   18.4674  -13.0246   -0.2518 H   0  0
   16.0958  -12.3505   -0.0892 H   0  0
    4.9302  -13.5597    1.3883 H   0  0
    1.0961  -12.8883   -0.3894 H   0  0
   -0.3579  -14.8625   -0.0089 H   0  0
    3.0992  -17.3830    0.3552 H   0  0
  1  3  2  0
  1 25  1  0
  2  1  2  0
  4  5  2  0
  4 33  1  0
  5  6  1  0
  5 24  1  0
  6  7  2  0
  6 34  1  0
  7  8  1  0
  8  9  2  0
  8 10  1  0
  9  4  1  0
  9 23  1  0
 10 11  1  0
 11 12  1  0
 11 16  1  0
 11 35  1  0
 12 13  1  0
 12 36  1  0
 12 37  1  0
 13 14  1  0
 13 38  1  0
 13 39  1  0
 14 15  1  0
 14 17  1  0
 15 16  1  0
 15 40  1  0
 15 41  1  0
 16 42  1  0
 16 43  1  0
 17 18  2  0
 18 19  1  0
 18 44  1  0
 19 20  2  0
 19 45  1  0
 20 21  1  0
 20 46  1  0
 21 22  2  0
 21 47  1  0
 22 17  1  0
 22 48  1  0
 24  1  1  0
 24 49  1  0
 25 26  2  0
 26 27  1  0
 26 50  1  0
 27 28  2  0
 27 51  1  0
 28 29  1  0
 28 32  1  0
 29 30  2  0
 29 52  1  0
 30 25  1  0
 30 31  1  0
M  END
> <Name>
CHEMBL2424947

> <Clean Energy>
9.9839

> <chembl_id>
CHEMBL2424947

> <chembl_pref_name>
None

> <efficacy>
0.12

> <Forcefield>
MMFF

> <ForcefieldBase>
MMFF

> <ForcefieldFFML>
<?xml version="1.0" encoding="UTF-8"?>
<!DOCTYPE ffml SYSTEM "Ffml.dtd">
<ffml version="1.0">
<forcefield name="MMFF" derivedFrom="MMFF" base="MMFF">
<atomTypes>
<atomType
name="S100"
element="S"
mass="32.066"
annotation=""/>
<atomType
name="O101"
element="O"
mass="16"
annotation=""/>
<atomType
name="C102"
element="C"
mass="12.011"
annotation=""/>
<atomType
name="N103"
element="N"
mass="14.007"
annotation=""/>
<atomType
name="Cl104"
element="Cl"
mass="35.453"
annotation=""/>
<atomType
name="F105"
element="F"
mass="18.998"
annotation=""/>
<atomType
name="H106"
element="H"
mass="1.008"
annotation=""/>
</atomTypes>
<parameters>
</parameters>
</forcefield>
</ffml>

> <Initial Potential Energy>
69.15871

> <Initial RMS Gradient>
32.82554

> <Minimization Criteria>
STEEPD> Minimization exiting with gradient tolerance ( 3.0000000) satisfied.

> <CHARMm Energy>
-6.83059

> <Potential Energy>
-6.83059

> <RMS Gradient>
0.04721

> <Bond Energy>
4.35281

> <Angle Energy>
15.7318

> <STRBend>
0.85555

> <Dihedral Energy>
10.87066

> <OOPLane>
0.65558

> <Van der Waals Energy>
61.7336

> <Electrostatic Energy>
-101.03061

> <Hydrogen Bond Energy>
0

> <Solvation Free Energy>
0

> <HasGasteigerCharges>
true

> <REMARK99>
REMARK  99  MacroMolecule created from Mol2 file
REMARK  99  CHEMBL2424947
REMARK  99  PROTEIN
REMARK  99  GASTEIGER
REMARK  99
REMARK  99

$$$$
CHEMBL3985281
  SciTegic05292516403D

 57 60  0  0  0  0            999 V2000
   18.5615  -13.4772    0.1644 C   0  0
   19.4438  -13.9879    1.1389 C   0  0
   20.5190  -13.2266    1.6175 C   0  0
   20.7624  -11.9578    1.0987 C   0  0
   19.9322  -11.4471    0.1058 C   0  0
   18.8409  -12.1950   -0.3497 C   0  0
   17.3457  -14.1885   -0.2750 C   0  0
   16.3874  -14.6155    0.6587 C   0  0
   15.2221  -15.2714    0.2553 C   0  0
   14.9629  -15.4910   -1.1029 C   0  0
   15.9241  -15.0875   -2.0411 C   0  0
   17.0969  -14.4416   -1.6321 C   0  0
   19.2951  -15.3443    1.7104 C   0  0
   19.1258  -15.5198    2.9086 O   0  0
   19.3927  -16.3793    0.8257 N   0  0
   13.6926  -16.1688   -1.5594 C   0  0
   11.9570  -14.3641   -1.1417 C   0  0
   12.4957  -15.6203   -0.9326 N   0  0
   11.6675  -16.3017   -0.0626 C   0  0
   10.6565  -15.3917    0.2291 C   0  0
   10.8569  -14.2095   -0.4322 N   0  0
    9.6166  -15.7595    1.0979 C   0  0
    9.6198  -17.0443    1.6525 C   0  0
   10.6422  -17.9434    1.3489 C   0  0
   11.6898  -17.5921    0.4861 C   0  0
   12.5156  -13.3282   -2.0665 C   0  0
   13.2968  -12.2295   -1.3405 C   0  0
   12.4030  -11.2793   -0.5375 C   0  0
   13.2172  -10.1360    0.0690 C   0  0
   12.3342   -9.1851    0.8610 C   0  0
   21.1568  -13.6296    2.3992 H   0  0
   21.5903  -11.3649    1.4744 H   0  0
   20.1167  -10.4541   -0.2978 H   0  0
   18.1861  -11.7496   -1.0970 H   0  0
   16.5358  -14.4321    1.7230 H   0  0
   14.5097  -15.5823    1.0183 H   0  0
   15.7646  -15.2582   -3.1041 H   0  0
   17.8179  -14.1315   -2.3868 H   0  0
   19.5723  -16.2415   -0.1592 H   0  0
   19.3481  -17.3218    1.1876 H   0  0
   13.5486  -16.0718   -2.6418 H   0  0
   13.7577  -17.2388   -1.3383 H   0  0
    8.8306  -15.0490    1.3280 H   0  0
    8.8185  -17.3392    2.3265 H   0  0
   10.6295  -18.9365    1.7931 H   0  0
   12.4759  -18.3046    0.2615 H   0  0
   13.1653  -13.7916   -2.8160 H   0  0
   11.6880  -12.8791   -2.6295 H   0  0
   14.0506  -12.6653   -0.6766 H   0  0
   13.8394  -11.6456   -2.0946 H   0  0
   11.6234  -10.8682   -1.1897 H   0  0
   11.8992  -11.8262    0.2671 H   0  0
   13.9937  -10.5408    0.7283 H   0  0
   13.7247   -9.5771   -0.7257 H   0  0
   12.9355   -8.3763    1.2878 H   0  0
   11.8336   -9.7074    1.6827 H   0  0
   11.5678   -8.7370    0.2205 H   0  0
  1  2  1  0
  1  6  2  0
  1  7  1  0
  2  3  2  0
  2 13  1  0
  3  4  1  0
  3 31  1  0
  4  5  2  0
  4 32  1  0
  5  6  1  0
  5 33  1  0
  6 34  1  0
  7  8  1  0
  7 12  2  0
  8  9  2  0
  8 35  1  0
  9 10  1  0
  9 36  1  0
 10 11  2  0
 10 16  1  0
 11 12  1  0
 11 37  1  0
 12 38  1  0
 13 14  2  0
 13 15  1  0
 15 39  1  0
 15 40  1  0
 16 18  1  0
 16 41  1  0
 16 42  1  0
 17 18  1  0
 17 21  2  0
 17 26  1  0
 18 19  1  0
 19 20  1  0
 19 25  2  0
 20 21  1  0
 20 22  2  0
 22 23  1  0
 22 43  1  0
 23 24  2  0
 23 44  1  0
 24 25  1  0
 24 45  1  0
 25 46  1  0
 26 27  1  0
 26 47  1  0
 26 48  1  0
 27 28  1  0
 27 49  1  0
 27 50  1  0
 28 29  1  0
 28 51  1  0
 28 52  1  0
 29 30  1  0
 29 53  1  0
 29 54  1  0
 30 55  1  0
 30 56  1  0
 30 57  1  0
M  END
> <Name>
CHEMBL3985281

> <Clean Energy>
51.203499

> <chembl_id>
CHEMBL3985281

> <chembl_pref_name>
None

> <efficacy>
0.153846154

> <Forcefield>
MMFF

> <ForcefieldBase>
MMFF

> <ForcefieldFFML>
<?xml version="1.0" encoding="UTF-8"?>
<!DOCTYPE ffml SYSTEM "Ffml.dtd">
<ffml version="1.0">
<forcefield name="MMFF" derivedFrom="MMFF" base="MMFF">
<atomTypes>
<atomType
name="C100"
element="C"
mass="12.011"
annotation=""/>
<atomType
name="O101"
element="O"
mass="16"
annotation=""/>
<atomType
name="N102"
element="N"
mass="14.007"
annotation=""/>
<atomType
name="H103"
element="H"
mass="1.008"
annotation=""/>
</atomTypes>
<parameters>
</parameters>
</forcefield>
</ffml>

> <Initial Potential Energy>
346.8595

> <Initial RMS Gradient>
95.94876

> <Minimization Criteria>
STEEPD> Minimization exiting with gradient tolerance ( 3.0000000) satisfied.

> <CHARMm Energy>
59.49299

> <Potential Energy>
59.49299

> <RMS Gradient>
0.09939

> <Bond Energy>
6.97754

> <Angle Energy>
7.21461

> <STRBend>
-0.25528

> <Dihedral Energy>
5.05943

> <OOPLane>
0.06965

> <Van der Waals Energy>
53.94568

> <Electrostatic Energy>
-13.51864

> <Hydrogen Bond Energy>
0

> <Solvation Free Energy>
0

> <HasGasteigerCharges>
true

> <REMARK99>
REMARK  99  MacroMolecule created from Mol2 file
REMARK  99  CHEMBL3985281
REMARK  99  PROTEIN
REMARK  99  GASTEIGER
REMARK  99
REMARK  99

$$$$
CHEMBL3398431
  SciTegic05292516403D

 69 73  0  0  0  0            999 V2000
    8.5091   -1.4276    0.2265 C   0  0
    9.8334   -1.4190   -0.2059 C   0  0
    1.2149    0.3216    0.5697 C   0  0
    1.6253    1.6258    0.2518 C   0  0
    6.0270   -5.0397   -0.1876 C   0  0
    7.7105   -2.5582    0.0158 C   0  0
    6.7811   -7.2151   -0.8641 C   0  0
   -0.1252   -0.0460    0.4508 C   0  0
    8.0065   -6.2970   -0.7363 C   0  0  2  0  0  0
    3.0366    1.9666    0.3611 C   0  0
    8.7011   -6.4885    0.6293 C   0  0
    5.1514    1.9845    0.6422 C   0  0
    3.5248   -6.2538    0.4183 O   0  0
    5.6780   -6.4367   -0.3348 N   0  0
    8.2175   -3.6853   -0.6529 C   0  0
   10.3465   -2.5144   -0.8930 C   0  0
    6.7017    0.0242    0.6782 C   0  0
    9.5406   -3.6309   -1.1285 C   0  0
    3.3128   -9.2281   -0.0024 C   0  0
    4.3865   -8.3291   -0.2298 O   0  0
    6.4858    1.4846    1.0647 C   0  0
    7.3599   -4.8981   -0.9458 C   0  0  2  0  0  0
    4.0067    1.2824    0.9387 N   0  0
   -0.6783    2.1857   -0.2932 C   0  0
    0.6650    2.5539   -0.1790 C   0  0
    5.5726    4.2248   -0.6794 C   0  0
    4.8187    3.1084   -0.0847 C   0  0
    8.0889   -0.2877    0.8595 O   0  0
   -1.0682    0.8830    0.0159 C   0  0
    3.4648    3.0972   -0.2795 O   0  0
    4.4396   -6.9477   -0.0115 C   0  0
    3.6277  -10.5783   -0.1887 C   0  0
    2.6466  -11.5503    0.0046 C   0  0
    1.3573  -11.1737    0.3791 C   0  0
    1.0501   -9.8227    0.5568 C   0  0
    2.0282   -8.8418    0.3640 C   0  0
    9.4544   -7.8011    0.6936 C   0  0
    9.3581   -8.7075   -0.1209 O   0  0
   10.2620   -7.8967    1.7746 O   0  0
   10.4540   -0.5426   -0.0316 H   0  0
    1.9413   -0.4196    0.9006 H   0  0
    5.2342   -4.4025   -0.5929 H   0  0
    6.1252   -4.8346    0.8846 H   0  0
    6.6868   -2.5557    0.3745 H   0  0
    6.5568   -7.4223   -1.9169 H   0  0
    6.8696   -8.1693   -0.3377 H   0  0
   -0.4307   -1.0609    0.6919 H   0  0
    8.7235   -6.5200   -1.5363 H   0  0
    9.4349   -5.6928    0.7888 H   0  0
    7.9779   -6.4690    1.4519 H   0  0
   11.3690   -2.4900   -1.2607 H   0  0
    6.4113   -0.1263   -0.3706 H   0  0
    6.0890   -0.6195    1.3211 H   0  0
    9.9569   -4.4598   -1.6972 H   0  0
    7.2775    2.1002    0.6192 H   0  0
    6.5938    1.5974    2.1507 H   0  0
    7.1045   -4.8227   -2.0149 H   0  0
   -1.4133    2.9139   -0.6279 H   0  0
    0.9626    3.5691   -0.4316 H   0  0
    4.9414    5.1133   -0.7827 H   0  0
    5.9436    3.9487   -1.6712 H   0  0
    6.4293    4.4931   -0.0522 H   0  0
   -2.1051    0.5786   -0.0847 H   0  0
    4.6335  -10.8725   -0.4790 H   0  0
    2.8892  -12.5997   -0.1375 H   0  0
    0.5951  -11.9348    0.5296 H   0  0
    0.0454   -9.5241    0.8456 H   0  0
    1.7609   -7.7996    0.5042 H   0  0
   10.3032   -7.0823    2.3156 H   0  0
  1  6  2  0
  2  1  1  0
  2 40  1  0
  3  8  1  0
  3 41  1  0
  4  3  2  0
  5 14  1  0
  5 42  1  0
  5 43  1  0
  6 15  1  0
  6 44  1  0
  7  9  1  0
  7 45  1  0
  7 46  1  0
  8 29  2  0
  8 47  1  0
  9 11  1  0
  9 22  1  0
  9 48  1  0
 10  4  1  0
 10 23  2  0
 11 37  1  0
 11 49  1  0
 11 50  1  0
 12 21  1  0
 12 27  2  0
 14  7  1  0
 14 31  1  0
 15 18  2  0
 16  2  2  0
 16 51  1  0
 17 28  1  0
 17 52  1  0
 17 53  1  0
 18 16  1  0
 18 54  1  0
 19 32  2  0
 20 19  1  0
 21 17  1  0
 21 55  1  0
 21 56  1  0
 22  5  1  0
 22 15  1  0
 22 57  1  0
 23 12  1  0
 24 25  2  0
 24 58  1  0
 25  4  1  0
 25 59  1  0
 26 60  1  0
 26 61  1  0
 26 62  1  0
 27 26  1  0
 27 30  1  0
 28  1  1  0
 29 24  1  0
 29 63  1  0
 30 10  1  0
 31 13  2  0
 31 20  1  0
 32 33  1  0
 32 64  1  0
 33 34  2  0
 33 65  1  0
 34 35  1  0
 34 66  1  0
 35 36  2  0
 35 67  1  0
 36 19  1  0
 36 68  1  0
 37 38  2  0
 37 39  1  0
 39 69  1  0
M  END
> <Name>
CHEMBL3398431

> <Clean Energy>
53.699699

> <chembl_id>
CHEMBL3398431

> <chembl_pref_name>
None

> <efficacy>
0.07

> <Forcefield>
MMFF

> <ForcefieldBase>
MMFF

> <ForcefieldFFML>
<?xml version="1.0" encoding="UTF-8"?>
<!DOCTYPE ffml SYSTEM "Ffml.dtd">
<ffml version="1.0">
<forcefield name="MMFF" derivedFrom="MMFF" base="MMFF">
<atomTypes>
<atomType
name="C100"
element="C"
mass="12.011"
annotation=""/>
<atomType
name="O101"
element="O"
mass="16"
annotation=""/>
<atomType
name="N102"
element="N"
mass="14.007"
annotation=""/>
<atomType
name="H103"
element="H"
mass="1.008"
annotation=""/>
</atomTypes>
<parameters>
</parameters>
</forcefield>
</ffml>

> <Initial Potential Energy>
140.28023

> <Initial RMS Gradient>
28.51771

> <Minimization Criteria>
STEEPD> Minimization exiting with gradient tolerance ( 3.0000000) satisfied.

> <CHARMm Energy>
38.47852

> <Potential Energy>
38.47852

> <RMS Gradient>
0.24384

> <Bond Energy>
8.12468

> <Angle Energy>
30.58874

> <STRBend>
-1.45642

> <Dihedral Energy>
-0.19356

> <OOPLane>
0.09935

> <Van der Waals Energy>
66.85288

> <Electrostatic Energy>
-65.53715

> <Hydrogen Bond Energy>
0

> <Solvation Free Energy>
0

> <HasGasteigerCharges>
true

> <REMARK99>
REMARK  99  MacroMolecule created from Mol2 file
REMARK  99  CHEMBL3398431
REMARK  99  PROTEIN
REMARK  99  GASTEIGER
REMARK  99
REMARK  99

$$$$
CHEMBL4167504
  SciTegic05292516403D

 78 81  0  0  0  0            999 V2000
   30.3963   -4.6519    2.6131 F   0  0
   32.4110   -5.4669    2.9135 F   0  0
   31.4023   -5.3394    2.0250 C   0  0
   13.3732   -4.9979    0.3437 C   0  0
   13.3930   -6.3529   -0.0103 C   0  0
   14.6093   -7.0388   -0.0940 C   0  0
   15.8108   -6.3760    0.1744 C   0  0
   15.7604   -5.0334    0.5727 C   0  0
   14.5576   -4.3325    0.6358 C   0  0
   14.6974   -3.0177    0.9830 O   0  0
   12.1568   -6.8827   -0.2614 O   0  0
   17.0848   -7.0982    0.0497 C   0  0
   18.2190   -6.4917   -0.3277 C   0  0
   19.4868   -7.2535   -0.4691 C   0  0
   20.7031   -6.4198   -0.5788 C   0  0
   19.5230   -8.4729   -0.5523 O   0  0
   21.6009   -6.6718   -1.6189 C   0  0
   22.0175   -4.5156    0.1775 C   0  0
   20.9188   -5.3617    0.3278 C   0  0
   22.8826   -4.7442   -0.8831 C   0  0
   22.6792   -5.8160   -1.7599 C   0  0
   23.9394   -5.8691   -3.0025 S   0  0
   24.7680   -4.4771   -2.2853 C   0  0
   24.0247   -3.9944   -1.2101 N   0  0
   25.8487   -4.0637   -2.6833 O   0  0
   24.5535   -2.8966   -0.4229 C   0  0
   25.6115   -3.3678    0.5773 C   0  0
   26.2806   -2.2495    1.1717 O   0  0
   27.5834   -2.0752    0.7941 C   0  0
   28.4713   -1.7458    1.8152 C   0  0
   29.8173   -1.5139    1.5291 C   0  0
   30.2892   -1.5818    0.2118 C   0  0
   29.3876   -1.8907   -0.8137 C   0  0
   28.0403   -2.1341   -0.5234 C   0  0
   31.7549   -1.3374   -0.0830 C   0  0
   32.5597   -2.6336   -0.2807 C   0  0  1  0  0  0
   34.0193   -2.2922   -0.6218 C   0  0
   34.8233   -3.3872   -0.4575 O   0  0
   34.4187   -1.2064   -1.0269 O   0  0
   32.4834   -3.4050    0.9279 O   0  0
   31.8544   -4.6817    0.7237 C   0  0
   36.2131   -3.1531   -0.7322 C   0  0
   36.9676   -4.4445   -0.4838 C   0  0
   30.9228   -6.5836    1.7704 F   0  0
   13.5161   -2.2269    0.9517 C   0  0
   12.0819   -8.2770   -0.5336 C   0  0
   12.4126   -4.4959    0.3874 H   0  0
   14.6270   -8.0871   -0.3784 H   0  0
   16.6696   -4.4973    0.8318 H   0  0
   17.0776   -8.1664    0.2522 H   0  0
   18.2564   -5.4349   -0.5674 H   0  0
   21.4241   -7.4882   -2.3153 H   0  0
   22.1725   -3.7069    0.8838 H   0  0
   20.2175   -5.1904    1.1450 H   0  0
   25.0038   -2.1711   -1.1115 H   0  0
   23.7496   -2.3517    0.0830 H   0  0
   25.1166   -3.9132    1.3899 H   0  0
   26.3163   -4.0798    0.1284 H   0  0
   28.1227   -1.6816    2.8426 H   0  0
   30.4973   -1.2823    2.3464 H   0  0
   29.7269   -1.9294   -1.8474 H   0  0
   27.3651   -2.3514   -1.3453 H   0  0
   31.8299   -0.6991   -0.9729 H   0  0
   32.1897   -0.7549    0.7405 H   0  0
   32.1659   -3.1907   -1.1414 H   0  0
   30.9736   -4.5698    0.0809 H   0  0
   32.5723   -5.3338    0.2145 H   0  0
   36.3351   -2.8475   -1.7773 H   0  0
   36.5926   -2.3679   -0.0690 H   0  0
   38.0358   -4.3160   -0.6793 H   0  0
   36.5843   -5.2444   -1.1258 H   0  0
   36.8345   -4.7758    0.5514 H   0  0
   13.7947   -1.1994    1.2049 H   0  0
   12.7933   -2.5696    1.6993 H   0  0
   13.0734   -2.2145   -0.0500 H   0  0
   11.0264   -8.5374   -0.6580 H   0  0
   12.4748   -8.8648    0.3025 H   0  0
   12.5986   -8.5220   -1.4670 H   0  0
  1  3  1  0
  3  2  1  0
  3 44  1  0
  4  5  2  0
  4 47  1  0
  5  6  1  0
  5 11  1  0
  6  7  2  0
  6 48  1  0
  7  8  1  0
  7 12  1  0
  8  9  2  0
  8 49  1  0
  9  4  1  0
  9 10  1  0
 10 45  1  0
 11 46  1  0
 12 13  2  0
 12 50  1  0
 13 14  1  0
 13 51  1  0
 14 15  1  0
 14 16  2  0
 15 17  2  0
 17 21  1  0
 17 52  1  0
 18 19  2  0
 18 53  1  0
 19 15  1  0
 19 54  1  0
 20 18  1  0
 20 21  2  0
 21 22  1  0
 22 23  1  0
 23 24  1  0
 23 25  2  0
 24 20  1  0
 24 26  1  0
 26 27  1  0
 26 55  1  0
 26 56  1  0
 27 28  1  0
 27 57  1  0
 27 58  1  0
 28 29  1  0
 29 30  2  0
 30 31  1  0
 30 59  1  0
 31 32  2  0
 31 60  1  0
 32 33  1  0
 32 35  1  0
 33 34  2  0
 33 61  1  0
 34 29  1  0
 34 62  1  0
 35 36  1  0
 35 63  1  0
 35 64  1  0
 36 37  1  0
 36 40  1  0
 36 65  1  0
 37 38  1  0
 37 39  2  0
 38 42  1  0
 40 41  1  0
 41  3  1  0
 41 66  1  0
 41 67  1  0
 42 43  1  0
 42 68  1  0
 42 69  1  0
 43 70  1  0
 43 71  1  0
 43 72  1  0
 45 73  1  0
 45 74  1  0
 45 75  1  0
 46 76  1  0
 46 77  1  0
 46 78  1  0
M  END
> <Name>
CHEMBL4167504

> <Clean Energy>
46.951698

> <chembl_id>
CHEMBL4167504

> <chembl_pref_name>
None

> <efficacy>
0.4

> <Forcefield>
MMFF

> <ForcefieldBase>
MMFF

> <ForcefieldFFML>
<?xml version="1.0" encoding="UTF-8"?>
<!DOCTYPE ffml SYSTEM "Ffml.dtd">
<ffml version="1.0">
<forcefield name="MMFF" derivedFrom="MMFF" base="MMFF">
<atomTypes>
<atomType
name="F100"
element="F"
mass="18.998"
annotation=""/>
<atomType
name="C101"
element="C"
mass="12.011"
annotation=""/>
<atomType
name="O102"
element="O"
mass="16"
annotation=""/>
<atomType
name="S103"
element="S"
mass="32.066"
annotation=""/>
<atomType
name="N104"
element="N"
mass="14.007"
annotation=""/>
<atomType
name="H105"
element="H"
mass="1.008"
annotation=""/>
</atomTypes>
<parameters>
</parameters>
</forcefield>
</ffml>

> <Initial Potential Energy>
259.7945

> <Initial RMS Gradient>
26.08676

> <Minimization Criteria>
STEEPD> Minimization exiting with gradient tolerance ( 3.0000000) satisfied.

> <CHARMm Energy>
139.37752

> <Potential Energy>
139.37752

> <RMS Gradient>
0.03389

> <Bond Energy>
6.85072

> <Angle Energy>
35.281

> <STRBend>
0.41777

> <Dihedral Energy>
15.76313

> <OOPLane>
0.23916

> <Van der Waals Energy>
80.47227

> <Electrostatic Energy>
0.35348

> <Hydrogen Bond Energy>
0

> <Solvation Free Energy>
0

> <HasGasteigerCharges>
true

> <REMARK99>
REMARK  99  MacroMolecule created from Mol2 file
REMARK  99  CHEMBL4167504
REMARK  99  PROTEIN
REMARK  99  GASTEIGER
REMARK  99
REMARK  99

$$$$
CHEMBL3585577
  SciTegic05292516403D

 64 68  0  0  0  0            999 V2000
   -1.9055    0.4731    0.3517 C   0  0
   -1.7760   -0.8602   -0.0292 C   0  0
   -0.5636   -1.3434   -0.5468 C   0  0
   -0.8029    1.3385    0.2657 C   0  0
    0.4142    0.8852   -0.2846 C   0  0
    0.5171   -0.4469   -0.6893 C   0  0
    1.7949   -0.6085   -1.2092 N   0  0
    2.4612    0.6061   -1.2126 C   0  0
    1.6558    1.5308   -0.5683 C   0  0
    1.9936    2.9541   -0.2886 C   0  0
    3.8149    0.8049   -1.8119 C   0  0
   -3.2259    0.9796    0.8263 C   0  0
   -4.0413    0.2741    1.4074 O   0  0
   -3.4839    2.2981    0.5172 N   0  0
   -4.6731    2.9689    0.9835 C   0  0
   -4.5275    4.4550    0.8433 C   0  0
   -5.3902    5.2147    0.0518 C   0  0
   -5.1914    6.5884   -0.0586 C   0  0
   -4.1390    7.1631    0.6338 C   0  0
   -3.2806    6.4595    1.4038 N   0  0
   -3.5011    5.1296    1.5009 C   0  0
    2.3013   -1.8570   -1.7863 C   0  0
    3.6432   -2.3062   -1.2423 C   0  0
    4.6139   -2.8219   -2.1156 C   0  0
    5.8577   -3.2551   -1.6369 C   0  0
    6.1547   -3.1934   -0.2680 C   0  0
    5.1755   -2.6885    0.6047 C   0  0
    3.9319   -2.2648    0.1278 C   0  0
    7.4565   -3.6613    0.2345 C   0  0
    8.6254   -2.9558   -0.1036 C   0  0
    9.8787   -3.3632    0.3639 C   0  0
    9.9919   -4.4886    1.1762 C   0  0
    8.8534   -5.2114    1.5226 C   0  0
    7.5964   -4.7953    1.0584 C   0  0
    6.4128   -5.5871    1.4535 C   0  0
    6.2042   -5.5249    2.7880 O   0  0
    5.6704   -6.1516    0.6730 O   0  0
   -2.6325   -1.5287    0.0542 H   0  0
   -0.4844   -2.3851   -0.8466 H   0  0
   -0.8750    2.3677    0.6000 H   0  0
    1.4015    3.3484    0.5432 H   0  0
    1.7971    3.5689   -1.1725 H   0  0
    3.0488    3.0620   -0.0181 H   0  0
    3.9798    1.8599   -2.0558 H   0  0
    3.9292    0.2450   -2.7446 H   0  0
    4.5962    0.5008   -1.1094 H   0  0
   -2.8844    2.7835   -0.1376 H   0  0
   -5.5153    2.5931    0.3920 H   0  0
   -4.8595    2.7050    2.0307 H   0  0
   -6.2261    4.7568   -0.4727 H   0  0
   -5.8500    7.2017   -0.6636 H   0  0
   -3.9529    8.2328    0.5850 H   0  0
   -2.7995    4.5992    2.1408 H   0  0
    1.5760   -2.6562   -1.6104 H   0  0
    2.3517   -1.6825   -2.8681 H   0  0
    4.4121   -2.8983   -3.1822 H   0  0
    6.5888   -3.6657   -2.3346 H   0  0
    5.3734   -2.6351    1.6729 H   0  0
    3.1943   -1.8816    0.8336 H   0  0
    8.5665   -2.0720   -0.7372 H   0  0
   10.7679   -2.8003    0.0871 H   0  0
   10.9692   -4.8039    1.5293 H   0  0
    8.9452   -6.1049    2.1355 H   0  0
    6.8903   -5.0327    3.2792 H   0  0
  1  2  2  0
  1 12  1  0
  2  3  1  0
  2 38  1  0
  3  6  2  0
  3 39  1  0
  4  1  1  0
  4 40  1  0
  5  4  2  0
  5  6  1  0
  6  7  1  0
  7  8  1  0
  7 22  1  0
  8  9  2  0
  8 11  1  0
  9  5  1  0
  9 10  1  0
 10 41  1  0
 10 42  1  0
 10 43  1  0
 11 44  1  0
 11 45  1  0
 11 46  1  0
 12 13  2  0
 12 14  1  0
 14 15  1  0
 14 47  1  0
 15 16  1  0
 15 48  1  0
 15 49  1  0
 16 17  2  0
 17 18  1  0
 17 50  1  0
 18 19  2  0
 18 51  1  0
 19 20  1  0
 19 52  1  0
 20 21  2  0
 21 16  1  0
 21 53  1  0
 22 23  1  0
 22 54  1  0
 22 55  1  0
 23 24  2  0
 24 25  1  0
 24 56  1  0
 25 26  2  0
 25 57  1  0
 26 27  1  0
 26 29  1  0
 27 28  2  0
 27 58  1  0
 28 23  1  0
 28 59  1  0
 29 30  2  0
 30 31  1  0
 30 60  1  0
 31 32  2  0
 31 61  1  0
 32 33  1  0
 32 62  1  0
 33 34  2  0
 33 63  1  0
 34 29  1  0
 34 35  1  0
 35 36  1  0
 35 37  2  0
 36 64  1  0
M  END
> <Name>
CHEMBL3585577

> <Clean Energy>
49.136002

> <chembl_id>
CHEMBL3585577

> <chembl_pref_name>
None

> <efficacy>
0.225

> <Forcefield>
MMFF

> <ForcefieldBase>
MMFF

> <ForcefieldFFML>
<?xml version="1.0" encoding="UTF-8"?>
<!DOCTYPE ffml SYSTEM "Ffml.dtd">
<ffml version="1.0">
<forcefield name="MMFF" derivedFrom="MMFF" base="MMFF">
<atomTypes>
<atomType
name="C100"
element="C"
mass="12.011"
annotation=""/>
<atomType
name="N101"
element="N"
mass="14.007"
annotation=""/>
<atomType
name="O102"
element="O"
mass="16"
annotation=""/>
<atomType
name="H103"
element="H"
mass="1.008"
annotation=""/>
</atomTypes>
<parameters>
</parameters>
</forcefield>
</ffml>

> <Initial Potential Energy>
290.55918

> <Initial RMS Gradient>
38.02421

> <Minimization Criteria>
STEEPD> Minimization exiting with gradient tolerance ( 3.0000000) satisfied.

> <CHARMm Energy>
79.41143

> <Potential Energy>
79.41143

> <RMS Gradient>
0.13381

> <Bond Energy>
8.77958

> <Angle Energy>
8.89868

> <STRBend>
0.20713

> <Dihedral Energy>
14.97033

> <OOPLane>
0.2601

> <Van der Waals Energy>
74.89645

> <Electrostatic Energy>
-28.60083

> <Hydrogen Bond Energy>
0

> <Solvation Free Energy>
0

> <HasGasteigerCharges>
true

> <REMARK99>
REMARK  99  MacroMolecule created from Mol2 file
REMARK  99  CHEMBL3585577
REMARK  99  PROTEIN
REMARK  99  GASTEIGER
REMARK  99
REMARK  99

$$$$
CHEMBL572794
  SciTegic05292516403D

 45 47  0  0  0  0            999 V2000
    5.0657    0.9337    0.2988 C   0  0
    6.1607    0.6897   -0.5444 C   0  0
    7.4513    1.1323   -0.2098 C   0  0
    7.6711    1.8266    0.9775 C   0  0
    6.5764    2.1011    1.8049 C   0  0
    5.2871    1.6614    1.4728 C   0  0
    8.8764    2.2699    1.4537 O   0  0
   10.0802    2.0130    0.6935 C   0  0  1  0  0  0
   11.0895    3.0672    1.1567 C   0  0
   10.6242    0.6162    1.0289 C   0  0
   11.7308    0.1398    0.1179 C   0  0
   13.0755    0.3360    0.4649 C   0  0
   14.0984   -0.1023   -0.3782 C   0  0
   13.7895   -0.7413   -1.5772 C   0  0
   12.4569   -0.9392   -1.9338 C   0  0
   11.4321   -0.5006   -1.0917 C   0  0
   10.8624    3.5247    2.4157 O   0  0
   12.0491    3.4496    0.5018 O   0  0
    3.7019    0.3454   -0.0142 C   0  0
    2.5610    1.2913   -0.3367 C   0  0
    2.7522    2.5017   -1.0133 C   0  0
    1.6585    3.2960   -1.3794 C   0  0
    0.3577    2.8838   -1.0917 C   0  0
    0.1492    1.6780   -0.4255 C   0  0
    1.2412    0.8889   -0.0528 C   0  0
    6.0226    0.1284   -1.4672 H   0  0
    8.2550    0.8960   -0.8985 H   0  0
    6.7219    2.6510    2.7319 H   0  0
    4.4599    1.8731    2.1487 H   0  0
    9.9103    2.1893   -0.3746 H   0  0
   10.9750    0.5901    2.0700 H   0  0
    9.8142   -0.1240    1.0032 H   0  0
   13.3363    0.8453    1.3904 H   0  0
   15.1388    0.0607   -0.1028 H   0  0
   14.5903   -1.0796   -2.2317 H   0  0
   12.2106   -1.4336   -2.8699 H   0  0
   10.3994   -0.6696   -1.3877 H   0  0
   10.0050    3.1753    2.7416 H   0  0
    3.7925   -0.3484   -0.8607 H   0  0
    3.4226   -0.2742    0.8492 H   0  0
    3.7543    2.8366   -1.2741 H   0  0
    1.8412    4.2324   -1.9001 H   0  0
   -0.4981    3.4893   -1.3930 H   0  0
   -0.8686    1.3487   -0.2124 H   0  0
    1.0676   -0.0573    0.4540 H   0  0
  1  2  2  0
  1 19  1  0
  2  3  1  0
  2 26  1  0
  3  4  2  0
  3 27  1  0
  4  5  1  0
  4  7  1  0
  5  6  2  0
  5 28  1  0
  6  1  1  0
  6 29  1  0
  7  8  1  0
  8  9  1  0
  8 10  1  0
  8 30  1  0
  9 17  1  0
  9 18  2  0
 10 11  1  0
 10 31  1  0
 10 32  1  0
 11 12  2  0
 12 13  1  0
 12 33  1  0
 13 14  2  0
 13 34  1  0
 14 15  1  0
 14 35  1  0
 15 16  2  0
 15 36  1  0
 16 11  1  0
 16 37  1  0
 17 38  1  0
 19 20  1  0
 19 39  1  0
 19 40  1  0
 20 21  2  0
 21 22  1  0
 21 41  1  0
 22 23  2  0
 22 42  1  0
 23 24  1  0
 23 43  1  0
 24 25  2  0
 24 44  1  0
 25 20  1  0
 25 45  1  0
M  END
> <Name>
CHEMBL572794

> <Clean Energy>
17.898399

> <chembl_id>
CHEMBL572794

> <chembl_pref_name>
None

> <efficacy>
0.42

> <Forcefield>
MMFF

> <ForcefieldBase>
MMFF

> <ForcefieldFFML>
<?xml version="1.0" encoding="UTF-8"?>
<!DOCTYPE ffml SYSTEM "Ffml.dtd">
<ffml version="1.0">
<forcefield name="MMFF" derivedFrom="MMFF" base="MMFF">
<atomTypes>
<atomType
name="C100"
element="C"
mass="12.011"
annotation=""/>
<atomType
name="O101"
element="O"
mass="16"
annotation=""/>
<atomType
name="H102"
element="H"
mass="1.008"
annotation=""/>
</atomTypes>
<parameters>
</parameters>
</forcefield>
</ffml>

> <Initial Potential Energy>
162.88705

> <Initial RMS Gradient>
31.77528

> <Minimization Criteria>
CONJUG> Minimization exiting with gradient tolerance ( 0.0100000) satisfied.

> <CHARMm Energy>
74.60637

> <Potential Energy>
74.60637

> <RMS Gradient>
0.00946

> <Bond Energy>
6.33309

> <Angle Energy>
12.08597

> <STRBend>
0.45149

> <Dihedral Energy>
1.20279

> <OOPLane>
0.14932

> <Van der Waals Energy>
52.81716

> <Electrostatic Energy>
1.56655

> <Hydrogen Bond Energy>
0

> <Solvation Free Energy>
0

> <HasGasteigerCharges>
true

> <REMARK99>
REMARK  99  MacroMolecule created from Mol2 file
REMARK  99  CHEMBL572794
REMARK  99  PROTEIN
REMARK  99  GASTEIGER
REMARK  99
REMARK  99

$$$$
CHEMBL4093864
  SciTegic05292516403D

 44 46  0  0  0  0            999 V2000
   42.3900  -27.8087    2.7393 O   0  0
   42.6689  -27.8164    1.3159 S   0  0
   44.0070  -27.9990    0.7896 O   0  0
   38.2571  -24.7283    0.6807 C   0  0
   38.4125  -25.8896    1.4272 C   0  0
   39.6622  -26.5067    1.5401 C   0  0
   39.3493  -24.1345    0.0442 C   0  0
   40.6205  -24.7365    0.1510 C   0  0
   40.7585  -25.9230    0.8775 C   0  0
   42.0855  -26.3036    0.7484 N   0  0
   42.8277  -25.3215    0.1041 C   0  0
   41.9099  -24.3779   -0.3280 C   0  0
   41.6453  -29.0357    0.5316 C   0  0
   41.4287  -28.9804   -0.8463 C   0  0
   40.6093  -29.9367   -1.4490 C   0  0
   40.0040  -30.9428   -0.6826 C   0  0
   40.2547  -31.0025    0.6959 C   0  0
   41.0739  -30.0507    1.3050 C   0  0
   44.3225  -25.3502   -0.0442 C   0  0
   44.9396  -23.9988   -0.4225 C   0  0
   46.4612  -24.0951   -0.4875 C   0  0
   47.0873  -22.7471   -0.7331 C   0  0
   47.5712  -22.0466    0.1432 O   0  0
   47.0691  -22.3672   -2.0304 O   0  0
   36.6961  -24.0106    0.5448 Cl  0  0
   39.1477  -31.9876   -1.3399 C   0  0
   37.5582  -26.3296    1.9354 H   0  0
   39.7599  -27.4075    2.1398 H   0  0
   39.2250  -23.2148   -0.5200 H   0  0
   42.1411  -23.4836   -0.8945 H   0  0
   41.8940  -28.2144   -1.4616 H   0  0
   40.4533  -29.8878   -2.5245 H   0  0
   39.8103  -31.7948    1.2991 H   0  0
   41.2692  -30.0980    2.3739 H   0  0
   44.7692  -25.6608    0.9078 H   0  0
   44.5898  -26.0877   -0.8103 H   0  0
   44.5535  -23.6625   -1.3928 H   0  0
   44.6499  -23.2344    0.3102 H   0  0
   46.8651  -24.4789    0.4572 H   0  0
   46.7874  -24.7923   -1.2677 H   0  0
   46.6488  -23.0184   -2.6235 H   0  0
   39.7652  -32.8366   -1.6488 H   0  0
   38.6410  -31.5787   -2.2204 H   0  0
   38.3714  -32.3436   -0.6545 H   0  0
  2  1  2  0
  2 13  1  0
  3  2  2  0
  4  5  2  0
  4 25  1  0
  5  6  1  0
  5 27  1  0
  6  9  2  0
  6 28  1  0
  7  4  1  0
  7 29  1  0
  8  7  2  0
  8  9  1  0
  9 10  1  0
 10  2  1  0
 10 11  1  0
 11 12  2  0
 11 19  1  0
 12  8  1  0
 12 30  1  0
 13 14  2  0
 14 15  1  0
 14 31  1  0
 15 16  2  0
 15 32  1  0
 16 17  1  0
 16 26  1  0
 17 18  2  0
 17 33  1  0
 18 13  1  0
 18 34  1  0
 19 20  1  0
 19 35  1  0
 19 36  1  0
 20 21  1  0
 20 37  1  0
 20 38  1  0
 21 22  1  0
 21 39  1  0
 21 40  1  0
 22 23  2  0
 22 24  1  0
 24 41  1  0
 26 42  1  0
 26 43  1  0
 26 44  1  0
M  END
> <Name>
CHEMBL4093864

> <Clean Energy>
35.546001

> <chembl_id>
CHEMBL4093864

> <chembl_pref_name>
None

> <efficacy>
0.3

> <Forcefield>
MMFF

> <ForcefieldBase>
MMFF

> <ForcefieldFFML>
<?xml version="1.0" encoding="UTF-8"?>
<!DOCTYPE ffml SYSTEM "Ffml.dtd">
<ffml version="1.0">
<forcefield name="MMFF" derivedFrom="MMFF" base="MMFF">
<atomTypes>
<atomType
name="O100"
element="O"
mass="16"
annotation=""/>
<atomType
name="S101"
element="S"
mass="32.066"
annotation=""/>
<atomType
name="C102"
element="C"
mass="12.011"
annotation=""/>
<atomType
name="N103"
element="N"
mass="14.007"
annotation=""/>
<atomType
name="Cl104"
element="Cl"
mass="35.453"
annotation=""/>
<atomType
name="H105"
element="H"
mass="1.008"
annotation=""/>
</atomTypes>
<parameters>
</parameters>
</forcefield>
</ffml>

> <Initial Potential Energy>
515.10874

> <Initial RMS Gradient>
257.28009

> <Minimization Criteria>
CONJUG> Minimization exiting with gradient tolerance ( 0.0100000) satisfied.

> <CHARMm Energy>
101.8582

> <Potential Energy>
101.8582

> <RMS Gradient>
0.00828

> <Bond Energy>
4.5676

> <Angle Energy>
10.74394

> <STRBend>
0.81823

> <Dihedral Energy>
-6.10258

> <OOPLane>
0.02177

> <Van der Waals Energy>
38.99401

> <Electrostatic Energy>
52.81523

> <Hydrogen Bond Energy>
0

> <Solvation Free Energy>
0

> <HasGasteigerCharges>
true

> <REMARK99>
REMARK  99  MacroMolecule created from Mol2 file
REMARK  99  CHEMBL4093864
REMARK  99  PROTEIN
REMARK  99  GASTEIGER
REMARK  99
REMARK  99

$$$$
CHEMBL294807
  SciTegic05292516403D

 45 47  0  0  0  0            999 V2000
    2.6339   -2.7256    0.0678 N   0  0
    1.6514   -1.9065    0.4026 C   0  0
    2.0835   -0.7894    1.0763 O   0  0
    3.7737   -2.1285    0.5523 C   0  0
    3.4378   -0.9445    1.1719 C   0  0
   13.1968    0.0466    0.3732 C   0  0
    0.2240   -2.0241    0.1329 C   0  0
   13.8298    0.3789   -0.6183 O   0  0
    5.0935   -2.7837    0.3813 C   0  0
   11.4039   -1.0824   -0.8601 O   0  0
   12.0101   -0.9090    0.4115 C   0  0
   10.2382   -1.7997   -0.8722 C   0  0
    7.7946   -3.1294   -1.1118 C   0  0
   13.5606    0.4783    1.6156 O   0  0
    5.4618   -2.9920   -1.0883 C   0  0
    9.4278   -1.5937   -1.9919 C   0  0
    9.8382   -2.7114    0.1078 C   0  0
    8.2062   -2.2587   -2.1161 C   0  0
    8.6188   -3.3817   -0.0183 C   0  0
    6.6243   -3.8288   -1.1992 O   0  0
    4.1833    0.1190    1.8657 C   0  0
   -0.2295   -3.0603   -0.6978 C   0  0
   -0.7188   -1.1410    0.6783 C   0  0
   -2.0815   -1.2948    0.4028 C   0  0
   -1.5898   -3.2126   -0.9762 C   0  0
   -2.5152   -2.3306   -0.4232 C   0  0
    5.8763   -2.1978    0.8769 H   0  0
    5.0806   -3.7531    0.8953 H   0  0
   12.3997   -1.8654    0.7783 H   0  0
   11.2726   -0.4940    1.1095 H   0  0
   12.9230    0.2016    2.3046 H   0  0
    4.6550   -3.5245   -1.6060 H   0  0
    5.5813   -2.0337   -1.6100 H   0  0
    9.7487   -0.9107   -2.7746 H   0  0
   10.4554   -2.9431    0.9681 H   0  0
    7.5963   -2.1049   -3.0011 H   0  0
    8.3091   -4.1012    0.7349 H   0  0
    4.4496    0.9154    1.1644 H   0  0
    5.1048   -0.2712    2.3081 H   0  0
    3.5839    0.5556    2.6705 H   0  0
    0.4874   -3.7555   -1.1341 H   0  0
   -0.4034   -0.3279    1.3285 H   0  0
   -2.8034   -0.6060    0.8347 H   0  0
   -1.9196   -4.0200   -1.6241 H   0  0
   -3.5744   -2.4504   -0.6356 H   0  0
  2  1  2  0
  3  2  1  0
  4  1  1  0
  5  3  1  0
  5  4  2  0
  6 11  1  0
  7  2  1  0
  8  6  2  0
  9  4  1  0
  9 27  1  0
  9 28  1  0
 10 12  1  0
 11 10  1  0
 11 29  1  0
 11 30  1  0
 12 17  1  0
 13 20  1  0
 14  6  1  0
 14 31  1  0
 15  9  1  0
 15 32  1  0
 15 33  1  0
 16 12  2  0
 16 18  1  0
 16 34  1  0
 17 19  2  0
 17 35  1  0
 18 13  2  0
 18 36  1  0
 19 13  1  0
 19 37  1  0
 20 15  1  0
 21  5  1  0
 21 38  1  0
 21 39  1  0
 21 40  1  0
 22  7  1  0
 22 41  1  0
 23  7  2  0
 23 42  1  0
 24 23  1  0
 24 43  1  0
 25 22  2  0
 25 26  1  0
 25 44  1  0
 26 24  2  0
 26 45  1  0
M  END
> <Name>
CHEMBL294807

> <Clean Energy>
24.462099

> <chembl_id>
CHEMBL294807

> <chembl_pref_name>
None

> <efficacy>
0.06

> <Forcefield>
MMFF

> <ForcefieldBase>
MMFF

> <ForcefieldFFML>
<?xml version="1.0" encoding="UTF-8"?>
<!DOCTYPE ffml SYSTEM "Ffml.dtd">
<ffml version="1.0">
<forcefield name="MMFF" derivedFrom="MMFF" base="MMFF">
<atomTypes>
<atomType
name="N100"
element="N"
mass="14.007"
annotation=""/>
<atomType
name="C101"
element="C"
mass="12.011"
annotation=""/>
<atomType
name="O102"
element="O"
mass="16"
annotation=""/>
<atomType
name="H103"
element="H"
mass="1.008"
annotation=""/>
</atomTypes>
<parameters>
</parameters>
</forcefield>
</ffml>

> <Initial Potential Energy>
136.20457

> <Initial RMS Gradient>
27.78042

> <Minimization Criteria>
STEEPD> Minimization exiting with gradient tolerance ( 3.0000000) satisfied.

> <CHARMm Energy>
63.30699

> <Potential Energy>
63.30699

> <RMS Gradient>
0.02492

> <Bond Energy>
3.51913

> <Angle Energy>
12.15739

> <STRBend>
-0.11486

> <Dihedral Energy>
4.11765

> <OOPLane>
0.12639

> <Van der Waals Energy>
41.87685

> <Electrostatic Energy>
1.62444

> <Hydrogen Bond Energy>
0

> <Solvation Free Energy>
0

> <HasGasteigerCharges>
true

> <REMARK99>
REMARK  99  MacroMolecule created from Mol2 file
REMARK  99  CHEMBL294807
REMARK  99  PROTEIN
REMARK  99  GASTEIGER
REMARK  99
REMARK  99

$$$$
CHEMBL3585574
  SciTegic05292516403D

131137  0  0  0  0            999 V2000
   -0.1666   -5.8226   -0.2100 O   0  0
    1.3424   -8.1824    0.2458 O   0  0
    3.8924   -7.4751    0.0136 O   0  0
    4.3690   -6.5232   -3.0511 O   0  0
    1.6391   -4.7631   -1.2665 O   0  0
    1.2588   -5.8068   -0.3618 C   0  0  2  0  0  0
    1.6301   -7.2311   -0.8015 C   0  0  1  0  0  0
    3.1002   -7.3107   -1.1741 C   0  0  1  0  0  0
    3.5769   -6.0714   -1.9432 C   0  0  2  0  0  0
    2.3817   -5.2267   -2.4050 C   0  0  2  0  0  0
    2.8271   -4.0023   -3.1963 C   0  0
   -4.4436    0.8252   -2.0395 C   0  0
   -4.6352   -0.6625   -2.2883 C   0  0  1  0  0  0
   -3.9470   -1.5894   -1.2474 C   0  0
   -2.9769    1.1995   -1.9011 C   0  0
   -2.2106    0.3990   -0.8052 C   0  0  1  0  0  0
   -2.4299   -1.1494   -1.0809 C   0  0  1  0  0  0
   -1.5553   -2.0141   -0.1156 C   0  0  2  0  0  0
   -0.0584   -1.6760   -0.2856 C   0  0
   -0.6550    0.6991   -0.9626 C   0  0  2  0  0  0
    0.3170   -0.1797   -0.0702 C   0  0  2  0  0  0
    1.1847    2.4915   -1.2867 C   0  0  2  0  0  0
   -0.2826    2.2040   -0.9309 C   0  0
    2.1097    1.6796   -0.3801 C   0  0  1  0  0  0
    1.8306    0.1437   -0.5283 C   0  0  1  0  0  0
    2.9756   -0.3952    0.3524 C   0  0
    4.2022    0.4531   -0.0386 C   0  0
    3.6717    1.8711   -0.4366 C   0  0  2  0  0  0
    4.2267    2.9766    0.5648 C   0  0  1  0  0  0
    3.5005    4.2148    0.3611 O   0  0
    3.7270    5.0746    1.5158 C   0  0  2  0  0  0
    4.0388    4.1227    2.6742 C   0  0
    4.0060    2.7281    2.0610 C   0  0
   -6.0368   -0.9455   -2.3190 O   0  0
   -2.7498    0.8717    0.5684 C   0  0
    0.1556    0.1100    1.4488 C   0  0
   -4.0733   -3.0244   -1.8374 C   0  0
   -4.7345   -1.5947    0.0805 C   0  0
   -2.0055   -1.3319   -2.0828 H   0  0
   -0.4539    0.3984   -1.9998 H   0  0
    2.0905   -0.3982   -1.9684 C   0  0
    1.8334    1.9772    0.6346 H   0  0
    1.3711    3.8976   -1.1455 O   0  0
    4.1359    2.2379   -1.8734 C   0  0
    5.7362    3.2426    0.3126 C   0  0
    2.5429    6.0518    1.7324 C   0  0
    2.8592    7.0454    2.8546 C   0  0
    1.2145    5.3463    2.0261 C   0  0
    2.3706    6.8405    0.5341 O   0  0
   -1.7140   -3.4011   -0.4382 O   0  0
   -1.9000   -4.3233    0.6461 C   0  0  1  0  0  0
   -0.5929   -5.0891    0.9436 C   0  0  1  0  0  0
   -0.8728   -6.0786    2.0794 C   0  0  2  0  0  0
   -1.4494   -5.3332    3.2826 C   0  0  1  0  0  0
   -2.7183   -4.5897    2.8564 C   0  0  2  0  0  0
   -2.3943   -3.6702    1.8188 O   0  0
   -3.3450   -3.8362    4.0350 C   0  0
   -3.8525   -4.7259    5.0292 O   0  0
   -1.7460   -6.2653    4.3186 O   0  0
    0.2919   -6.7904    2.5215 O   0  0
    0.6093   -8.7380   -0.0865 H   0  0
    3.5958   -8.3155    0.4238 H   0  0
    5.0262   -5.8200   -3.2285 H   0  0
    1.7504   -5.6037    0.5980 H   0  0
    1.0213   -7.5101   -1.6721 H   0  0
    3.2706   -8.2215   -1.7615 H   0  0
    4.2286   -5.4733   -1.2927 H   0  0
    1.7181   -5.8071   -3.0587 H   0  0
    1.9589   -3.3960   -3.4759 H   0  0
    3.3569   -4.2826   -4.1114 H   0  0
    3.4820   -3.3642   -2.5932 H   0  0
   -4.8745    1.3874   -2.8788 H   0  0
   -5.0283    1.1467   -1.1712 H   0  0
   -4.2453   -0.8901   -3.2892 H   0  0
   -2.4905    1.0503   -2.8742 H   0  0
   -2.9360    2.2747   -1.6918 H   0  0
   -1.8571   -1.8045    0.9078 H   0  0
    0.5422   -2.3048    0.3818 H   0  0
    0.2021   -2.0051   -1.2959 H   0  0
    1.3538    2.2584   -2.3419 H   0  0
   -0.8939    2.7724   -1.6396 H   0  0
   -0.5019    2.6420    0.0491 H   0  0
    2.7958   -0.2374    1.4190 H   0  0
    3.1612   -1.4643    0.2049 H   0  0
    4.9148    0.4729    0.7915 H   0  0
    4.7312   -0.0208   -0.8736 H   0  0
    4.6177    5.6684    1.2721 H   0  0
    5.0325    4.3474    3.0792 H   0  0
    3.3448    4.1992    3.5157 H   0  0
    4.7538    2.0661    2.5088 H   0  0
    3.0238    2.2936    2.2662 H   0  0
   -6.5092   -0.1483   -2.6133 H   0  0
   -2.7677    0.0791    1.3174 H   0  0
   -3.7737    1.2495    0.5165 H   0  0
   -2.1697    1.7016    0.9788 H   0  0
    0.2658    1.1671    1.6991 H   0  0
    0.8767   -0.4558    2.0450 H   0  0
   -0.8077   -0.2018    1.8463 H   0  0
   -3.3416   -3.1948   -2.6344 H   0  0
   -5.0648   -3.2030   -2.2699 H   0  0
   -3.9561   -3.7976   -1.0769 H   0  0
   -4.1977   -2.1244    0.8696 H   0  0
   -5.7007   -2.1014   -0.0335 H   0  0
   -4.9588   -0.5907    0.4430 H   0  0
    3.1086   -0.2334   -2.3217 H   0  0
    1.4274    0.0289   -2.7223 H   0  0
    1.9841   -1.4838   -2.0011 H   0  0
    2.3195    4.0704   -0.9625 H   0  0
    3.9866    3.3012   -2.0882 H   0  0
    3.6035    1.6968   -2.6559 H   0  0
    5.2003    2.0201   -2.0156 H   0  0
    6.1824    3.8865    1.0777 H   0  0
    5.8946    3.7734   -0.6322 H   0  0
    6.3147    2.3139    0.3028 H   0  0
    2.0664    7.7974    2.9426 H   0  0
    3.7816    7.5964    2.6374 H   0  0
    2.9714    6.5516    3.8246 H   0  0
    0.3899    6.0686    2.0400 H   0  0
    1.2260    4.8270    2.9888 H   0  0
    0.9670    4.6161    1.2521 H   0  0
    2.0592    6.1910   -0.1355 H   0  0
   -2.6530   -5.0370    0.2901 H   0  0
    0.1764   -4.3702    1.2511 H   0  0
   -1.5744   -6.8547    1.7467 H   0  0
   -0.7003   -4.6346    3.6760 H   0  0
   -3.4657   -5.3092    2.4940 H   0  0
   -2.6164   -3.1654    4.5035 H   0  0
   -4.1729   -3.2092    3.6870 H   0  0
   -3.2014   -5.4608    5.1034 H   0  0
   -0.9820   -6.8810    4.3637 H   0  0
    0.5966   -7.3733    1.7921 H   0  0
  2 61  1  0
  3 62  1  0
  4 63  1  0
  5  6  1  0
  6  1  1  0
  6  7  1  0
  6 64  1  0
  7  2  1  0
  7  8  1  0
  7 65  1  0
  8  3  1  0
  8  9  1  0
  8 66  1  0
  9  4  1  0
  9 10  1  0
  9 67  1  0
 10  5  1  0
 10 11  1  0
 10 68  1  0
 11 69  1  0
 11 70  1  0
 11 71  1  0
 12 13  1  0
 12 15  1  0
 12 72  1  0
 12 73  1  0
 13 14  1  0
 13 34  1  0
 13 74  1  0
 14 17  1  0
 14 37  1  0
 14 38  1  0
 15 75  1  0
 15 76  1  0
 16 15  1  0
 16 17  1  0
 16 20  1  0
 16 35  1  0
 17 18  1  0
 17 39  1  0
 18 19  1  0
 18 50  1  0
 18 77  1  0
 19 21  1  0
 19 78  1  0
 19 79  1  0
 20 21  1  0
 20 23  1  0
 20 40  1  0
 21 25  1  0
 21 36  1  0
 22 23  1  0
 22 43  1  0
 22 80  1  0
 23 81  1  0
 23 82  1  0
 24 22  1  0
 24 25  1  0
 24 42  1  0
 25 26  1  0
 25 41  1  0
 26 27  1  0
 26 83  1  0
 26 84  1  0
 27 28  1  0
 27 85  1  0
 27 86  1  0
 28 24  1  0
 28 29  1  0
 28 44  1  0
 29 30  1  0
 29 45  1  0
 30 31  1  0
 31 32  1  0
 31 46  1  0
 31 87  1  0
 32 33  1  0
 32 88  1  0
 32 89  1  0
 33 29  1  0
 33 90  1  0
 33 91  1  0
 34 92  1  0
 35 93  1  0
 35 94  1  0
 35 95  1  0
 36 96  1  0
 36 97  1  0
 36 98  1  0
 37 99  1  0
 37100  1  0
 37101  1  0
 38102  1  0
 38103  1  0
 38104  1  0
 41105  1  0
 41106  1  0
 41107  1  0
 43108  1  0
 44109  1  0
 44110  1  0
 44111  1  0
 45112  1  0
 45113  1  0
 45114  1  0
 46 47  1  0
 46 48  1  0
 46 49  1  0
 47115  1  0
 47116  1  0
 47117  1  0
 48118  1  0
 48119  1  0
 48120  1  0
 49121  1  0
 51 50  1  0
 51 52  1  0
 51 56  1  0
 51122  1  0
 52  1  1  0
 52 53  1  0
 52123  1  0
 53 54  1  0
 53 60  1  0
 53124  1  0
 54 55  1  0
 54 59  1  0
 54125  1  0
 55 56  1  0
 55 57  1  0
 55126  1  0
 57 58  1  0
 57127  1  0
 57128  1  0
 58129  1  0
 59130  1  0
 60131  1  0
M  END
> <Name>
CHEMBL3585574

> <Clean Energy>
206.072006

> <chembl_id>
CHEMBL3585574

> <chembl_pref_name>
None

> <efficacy>
0.3

> <Forcefield>
MMFF

> <ForcefieldBase>
MMFF

> <ForcefieldFFML>
<?xml version="1.0" encoding="UTF-8"?>
<!DOCTYPE ffml SYSTEM "Ffml.dtd">
<ffml version="1.0">
<forcefield name="MMFF" derivedFrom="MMFF" base="MMFF">
<atomTypes>
<atomType
name="O100"
element="O"
mass="16"
annotation=""/>
<atomType
name="C101"
element="C"
mass="12.011"
annotation=""/>
<atomType
name="H102"
element="H"
mass="1.008"
annotation=""/>
</atomTypes>
<parameters>
</parameters>
</forcefield>
</ffml>

> <Initial Potential Energy>
707.77905

> <Initial RMS Gradient>
25.42012

> <Minimization Criteria>
CONJUG> Minimization exiting with gradient tolerance ( 0.0100000) satisfied.

> <CHARMm Energy>
349.4422

> <Potential Energy>
349.4422

> <RMS Gradient>
0.00887

> <Bond Energy>
29.42747

> <Angle Energy>
43.35172

> <STRBend>
3.69191

> <Dihedral Energy>
93.81781

> <OOPLane>
0

> <Van der Waals Energy>
115.80336

> <Electrostatic Energy>
63.34994

> <Hydrogen Bond Energy>
0

> <Solvation Free Energy>
0

> <HasGasteigerCharges>
true

> <REMARK99>
REMARK  99  MacroMolecule created from Mol2 file
REMARK  99  CHEMBL3585574
REMARK  99  PROTEIN
REMARK  99  GASTEIGER
REMARK  99
REMARK  99

$$$$
CHEMBL3962742
  SciTegic05292516403D

 60 63  0  0  0  0            999 V2000
   15.2877   -8.8482    0.1850 C   0  0
   16.1596   -9.3365    1.1800 C   0  0
   17.2316   -8.5666    1.6518 C   0  0
   17.4812   -7.3098    1.1077 C   0  0
   16.6584   -6.8194    0.0979 C   0  0
   15.5707   -7.5769   -0.3528 C   0  0
   14.0822   -9.5755   -0.2542 C   0  0
   13.1082   -9.9749    0.6749 C   0  0
   11.9586  -10.6590    0.2730 C   0  0
   11.7324  -10.9377   -1.0803 C   0  0
   12.7070  -10.5551   -2.0135 C   0  0
   13.8633   -9.8792   -1.6059 C   0  0
   16.0021  -10.6790    1.7812 C   0  0
   15.7924  -10.8246    2.9763 O   0  0
   16.1420  -11.7340    0.9261 N   0  0
   10.4921  -11.6691   -1.5358 C   0  0
    8.6790   -9.9209   -1.2299 C   0  0
    9.2672  -11.1402   -0.9486 N   0  0
    8.4554  -11.8115   -0.0558 C   0  0
    7.3996  -10.9342    0.1711 C   0  0
    7.5596   -9.7804   -0.5488 N   0  0
    6.3621  -11.3027    1.0422 C   0  0
    6.4123  -12.5553    1.6647 C   0  0
    7.4794  -13.4217    1.4253 C   0  0
    8.5259  -13.0687    0.5621 C   0  0
    9.2126   -8.9060   -2.1925 C   0  0
    9.8990   -7.7241   -1.5011 C   0  0
    8.9146   -6.7838   -0.7973 C   0  0
    9.6266   -5.5588   -0.2192 C   0  0
    8.6365   -4.6211    0.4724 C   0  0
    9.3294   -3.3927    1.0399 C   0  0
   17.8619   -8.9542    2.4474 H   0  0
   18.3066   -6.7101    1.4779 H   0  0
   16.8447   -5.8344   -0.3243 H   0  0
   14.9222   -7.1469   -1.1148 H   0  0
   13.2352   -9.7527    1.7347 H   0  0
   11.2364  -10.9522    1.0337 H   0  0
   12.5736  -10.7723   -3.0716 H   0  0
   14.5981   -9.5924   -2.3564 H   0  0
   16.3572  -11.6173   -0.0544 H   0  0
   16.0946  -12.6682    1.3095 H   0  0
   10.3658  -11.6125   -2.6233 H   0  0
   10.5857  -12.7289   -1.2791 H   0  0
    5.5409  -10.6180    1.2225 H   0  0
    5.6126  -12.8507    2.3410 H   0  0
    7.5028  -14.3900    1.9216 H   0  0
    9.3477  -13.7547    0.3891 H   0  0
    9.9179   -9.3684   -2.8903 H   0  0
    8.3827   -8.5403   -2.8104 H   0  0
   10.6440   -8.0792   -0.7805 H   0  0
   10.4424   -7.1534   -2.2647 H   0  0
    8.1465   -6.4573   -1.5090 H   0  0
    8.4027   -7.3136    0.0135 H   0  0
   10.3906   -5.8823    0.4982 H   0  0
   10.1435   -5.0197   -1.0223 H   0  0
    7.8671   -4.3014   -0.2402 H   0  0
    8.1258   -5.1524    1.2839 H   0  0
    8.6013   -2.7433    1.5364 H   0  0
    9.8141   -2.8145    0.2468 H   0  0
   10.0900   -3.6742    1.7750 H   0  0
  1  2  1  0
  1  6  2  0
  1  7  1  0
  2  3  2  0
  2 13  1  0
  3  4  1  0
  3 32  1  0
  4  5  2  0
  4 33  1  0
  5  6  1  0
  5 34  1  0
  6 35  1  0
  7  8  1  0
  7 12  2  0
  8  9  2  0
  8 36  1  0
  9 10  1  0
  9 37  1  0
 10 11  2  0
 10 16  1  0
 11 12  1  0
 11 38  1  0
 12 39  1  0
 13 14  2  0
 13 15  1  0
 15 40  1  0
 15 41  1  0
 16 18  1  0
 16 42  1  0
 16 43  1  0
 17 18  1  0
 17 21  2  0
 17 26  1  0
 18 19  1  0
 19 20  1  0
 19 25  2  0
 20 21  1  0
 20 22  2  0
 22 23  1  0
 22 44  1  0
 23 24  2  0
 23 45  1  0
 24 25  1  0
 24 46  1  0
 25 47  1  0
 26 27  1  0
 26 48  1  0
 26 49  1  0
 27 28  1  0
 27 50  1  0
 27 51  1  0
 28 29  1  0
 28 52  1  0
 28 53  1  0
 29 30  1  0
 29 54  1  0
 29 55  1  0
 30 31  1  0
 30 56  1  0
 30 57  1  0
 31 58  1  0
 31 59  1  0
 31 60  1  0
M  END
> <Name>
CHEMBL3962742

> <Clean Energy>
52.500301

> <chembl_id>
CHEMBL3962742

> <chembl_pref_name>
None

> <efficacy>
0.358974359

> <Forcefield>
MMFF

> <ForcefieldBase>
MMFF

> <ForcefieldFFML>
<?xml version="1.0" encoding="UTF-8"?>
<!DOCTYPE ffml SYSTEM "Ffml.dtd">
<ffml version="1.0">
<forcefield name="MMFF" derivedFrom="MMFF" base="MMFF">
<atomTypes>
<atomType
name="C100"
element="C"
mass="12.011"
annotation=""/>
<atomType
name="O101"
element="O"
mass="16"
annotation=""/>
<atomType
name="N102"
element="N"
mass="14.007"
annotation=""/>
<atomType
name="H103"
element="H"
mass="1.008"
annotation=""/>
</atomTypes>
<parameters>
</parameters>
</forcefield>
</ffml>

> <Initial Potential Energy>
375.05981

> <Initial RMS Gradient>
110.55037

> <Minimization Criteria>
STEEPD> Minimization exiting with gradient tolerance ( 3.0000000) satisfied.

> <CHARMm Energy>
59.36074

> <Potential Energy>
59.36074

> <RMS Gradient>
0.12665

> <Bond Energy>
7.13759

> <Angle Energy>
7.28484

> <STRBend>
-0.28531

> <Dihedral Energy>
3.65462

> <OOPLane>
0.07165

> <Van der Waals Energy>
54.88309

> <Electrostatic Energy>
-13.38574

> <Hydrogen Bond Energy>
0

> <Solvation Free Energy>
0

> <HasGasteigerCharges>
true

> <REMARK99>
REMARK  99  MacroMolecule created from Mol2 file
REMARK  99  CHEMBL3962742
REMARK  99  PROTEIN
REMARK  99  GASTEIGER
REMARK  99
REMARK  99

$$$$
CHEMBL1801742
  SciTegic05292516403D

 67 72  0  0  0  0            999 V2000
   14.1458  -18.9472   -0.3610 C   0  0
   14.7529  -17.6734   -0.2443 C   0  0
   14.8592  -20.2205   -0.5348 C   0  0
   16.2031  -17.4012   -0.2218 C   0  0
   16.8017  -16.6822   -1.2837 C   0  0
   16.9839  -17.7227    0.9014 C   0  0
   18.1205  -16.2214   -1.2068 C   0  0
   12.7343  -19.0227   -0.3190 C   0  0
   13.9152  -16.5403   -0.1021 C   0  0
   11.9330  -17.8884   -0.1796 C   0  0
   12.5266  -16.6428   -0.0734 C   0  0
   18.8387  -16.4654   -0.0469 C   0  0
   18.2909  -17.2531    0.9721 C   0  0
   19.2833  -17.4800    2.0695 C   0  0
   20.3112  -16.3666    1.8209 C   0  0
   20.2180  -15.9766    0.3288 C   0  0  2  0  0  0
   20.4431  -14.5511    0.1105 N   0  0
   20.1729  -12.3386   -0.0105 N   0  0
   21.6353  -14.0380   -0.3558 C   0  0
   19.6084  -13.4714    0.3732 C   0  0
   21.4282  -12.6703   -0.4420 C   0  0
   23.7663  -13.9154   -1.0964 C   0  0
   22.7647  -14.7131   -0.6556 N   0  0
   22.4793  -11.8571   -0.9010 C   0  0
   23.6731  -12.5254   -1.2293 C   0  0
   18.2486  -13.5541    0.9988 C   0  0
   22.3794  -10.3565   -1.0137 C   0  0
   17.8720  -12.2704    1.7278 C   0  0
   16.1542  -20.3771   -0.9500 N   0  0
   16.4790  -21.6747   -1.0128 N   0  0
   15.3781  -22.3203   -0.6613 N   0  0
   14.3628  -21.4410   -0.3743 N   0  0
   25.0583  -14.5967   -1.4513 C   0  0
   23.0794   -9.6035    0.1340 C   0  0
   23.1220   -8.1060   -0.1805 C   0  0
   22.3840   -9.8271    1.4796 C   0  0
   16.2116  -16.4265   -2.1641 H   0  0
   16.5563  -18.2794    1.7338 H   0  0
   18.5435  -15.6321   -2.0168 H   0  0
   12.2455  -19.9917   -0.4034 H   0  0
   14.3535  -15.5481    0.0035 H   0  0
   10.8517  -17.9822   -0.1541 H   0  0
   11.9261  -15.7453    0.0385 H   0  0
   18.8329  -17.3883    3.0621 H   0  0
   19.7405  -18.4689    1.9602 H   0  0
   20.0788  -15.5136    2.4719 H   0  0
   21.3241  -16.6850    2.0925 H   0  0
   20.9495  -16.5440   -0.2591 H   0  0
   24.5320  -11.9551   -1.5806 H   0  0
   17.5039  -13.7452    0.2193 H   0  0
   18.1989  -14.3705    1.7233 H   0  0
   22.8176  -10.0606   -1.9760 H   0  0
   21.3231  -10.0622   -1.0638 H   0  0
   16.8867  -12.3754    2.1933 H   0  0
   17.8298  -11.4187    1.0403 H   0  0
   18.5973  -12.0350    2.5141 H   0  0
   16.8419  -19.6840   -1.2079 H   0  0
   25.3161  -14.3976   -2.4962 H   0  0
   24.9761  -15.6807   -1.3218 H   0  0
   25.8646  -14.2357   -0.8053 H   0  0
   24.1150   -9.9557    0.2236 H   0  0
   23.6417   -7.5562    0.6113 H   0  0
   22.1128   -7.6908   -0.2755 H   0  0
   23.6552   -7.9206   -1.1189 H   0  0
   22.8665   -9.2385    2.2674 H   0  0
   22.4325  -10.8772    1.7836 H   0  0
   21.3299   -9.5326    1.4363 H   0  0
  1  2  1  0
  2  4  1  0
  3  1  1  0
  3 29  1  0
  4  5  2  0
  5  7  1  0
  5 37  1  0
  6  4  1  0
  6 13  2  0
  6 38  1  0
  7 12  2  0
  7 39  1  0
  8  1  2  0
  8 10  1  0
  8 40  1  0
  9  2  2  0
  9 41  1  0
 10 11  2  0
 10 42  1  0
 11  9  1  0
 11 43  1  0
 12 13  1  0
 13 14  1  0
 14 15  1  0
 14 44  1  0
 14 45  1  0
 15 16  1  0
 15 46  1  0
 15 47  1  0
 16 12  1  0
 16 17  1  0
 16 48  1  0
 17 19  1  0
 18 20  2  0
 18 21  1  0
 19 21  2  0
 19 23  1  0
 20 17  1  0
 21 24  1  0
 22 33  1  0
 23 22  2  0
 24 25  2  0
 25 22  1  0
 25 49  1  0
 26 20  1  0
 26 50  1  0
 26 51  1  0
 27 24  1  0
 27 34  1  0
 27 52  1  0
 27 53  1  0
 28 26  1  0
 28 54  1  0
 28 55  1  0
 28 56  1  0
 29 30  1  0
 29 57  1  0
 30 31  2  0
 31 32  1  0
 32  3  2  0
 33 58  1  0
 33 59  1  0
 33 60  1  0
 34 35  1  0
 34 36  1  0
 34 61  1  0
 35 62  1  0
 35 63  1  0
 35 64  1  0
 36 65  1  0
 36 66  1  0
 36 67  1  0
M  END
> <Name>
CHEMBL1801742

> <Clean Energy>
96.607903

> <chembl_id>
CHEMBL1801742

> <chembl_pref_name>
None

> <efficacy>
0.304347826

> <Forcefield>
MMFF

> <ForcefieldBase>
MMFF

> <ForcefieldFFML>
<?xml version="1.0" encoding="UTF-8"?>
<!DOCTYPE ffml SYSTEM "Ffml.dtd">
<ffml version="1.0">
<forcefield name="MMFF" derivedFrom="MMFF" base="MMFF">
<atomTypes>
<atomType
name="C100"
element="C"
mass="12.011"
annotation=""/>
<atomType
name="N101"
element="N"
mass="14.007"
annotation=""/>
<atomType
name="H102"
element="H"
mass="1.008"
annotation=""/>
</atomTypes>
<parameters>
</parameters>
</forcefield>
</ffml>

> <Initial Potential Energy>
248.92227

> <Initial RMS Gradient>
35.76221

> <Minimization Criteria>
CONJUG> Minimization exiting with gradient tolerance ( 0.0100000) satisfied.

> <CHARMm Energy>
90.41617

> <Potential Energy>
90.41617

> <RMS Gradient>
0.00928

> <Bond Energy>
9.07402

> <Angle Energy>
15.89204

> <STRBend>
-0.50807

> <Dihedral Energy>
4.22712

> <OOPLane>
0.14405

> <Van der Waals Energy>
60.09483

> <Electrostatic Energy>
1.49218

> <Hydrogen Bond Energy>
0

> <Solvation Free Energy>
0

> <HasGasteigerCharges>
true

> <REMARK99>
REMARK  99  MacroMolecule created from Mol2 file
REMARK  99  CHEMBL1801742
REMARK  99  PROTEIN
REMARK  99  GASTEIGER
REMARK  99
REMARK  99

$$$$
CHEMBL1956358
  SciTegic05292516403D

 32 33  0  0  0  0            999 V2000
    7.7171    2.6735   -0.0413 C   0  0
    7.6575    1.7592   -1.0884 C   0  0
    8.8014    1.0496   -1.4346 C   0  0
   10.0069    1.2369   -0.7602 C   0  0
   10.0734    2.1589    0.2805 C   0  0
    8.9211    2.8672    0.6406 C   0  0
   11.1707    2.4435    1.0401 O   0  0
   12.4677    2.0370    0.5804 C   0  0  2  0  0  0
   12.8282    0.7013    1.2457 C   0  0
   14.0303    0.0283    0.6279 C   0  0
   15.2726    0.0647    1.2770 C   0  0
   16.3953   -0.5179    0.6885 C   0  0
   16.2871   -1.1466   -0.5499 C   0  0
   15.0553   -1.1976   -1.1990 C   0  0
   13.9307   -0.6143   -0.6135 C   0  0
   13.4580    3.1246    1.0225 C   0  0
   14.6436    3.0934    0.3613 O   0  0
   13.2404    3.9706    1.8790 O   0  0
    8.7461    0.1615   -2.4364 F   0  0
    6.8319    3.2353    0.2470 H   0  0
    6.7306    1.5942   -1.6298 H   0  0
   10.8517    0.6371   -1.0693 H   0  0
    8.9652    3.5829    1.4598 H   0  0
   12.5020    2.0114   -0.5155 H   0  0
   12.9942    0.8514    2.3212 H   0  0
   11.9801    0.0063    1.1926 H   0  0
   15.3794    0.5534    2.2447 H   0  0
   17.3561   -0.4855    1.1987 H   0  0
   17.1628   -1.6060   -1.0033 H   0  0
   14.9700   -1.7012   -2.1593 H   0  0
   12.9769   -0.6795   -1.1323 H   0  0
   14.7485    2.3559   -0.2725 H   0  0
  1  2  2  0
  1 20  1  0
  2  3  1  0
  2 21  1  0
  3  4  2  0
  3 19  1  0
  4  5  1  0
  4 22  1  0
  5  6  2  0
  5  7  1  0
  6  1  1  0
  6 23  1  0
  7  8  1  0
  8  9  1  0
  8 16  1  0
  8 24  1  0
  9 10  1  0
  9 25  1  0
  9 26  1  0
 10 11  2  0
 11 12  1  0
 11 27  1  0
 12 13  2  0
 12 28  1  0
 13 14  1  0
 13 29  1  0
 14 15  2  0
 14 30  1  0
 15 10  1  0
 15 31  1  0
 16 17  1  0
 16 18  2  0
 17 32  1  0
M  END
> <Name>
CHEMBL1956358

> <Clean Energy>
11.8895

> <chembl_id>
CHEMBL1956358

> <chembl_pref_name>
None

> <efficacy>
0.313390313

> <Forcefield>
MMFF

> <ForcefieldBase>
MMFF

> <ForcefieldFFML>
<?xml version="1.0" encoding="UTF-8"?>
<!DOCTYPE ffml SYSTEM "Ffml.dtd">
<ffml version="1.0">
<forcefield name="MMFF" derivedFrom="MMFF" base="MMFF">
<atomTypes>
<atomType
name="C100"
element="C"
mass="12.011"
annotation=""/>
<atomType
name="O101"
element="O"
mass="16"
annotation=""/>
<atomType
name="F102"
element="F"
mass="18.998"
annotation=""/>
<atomType
name="H103"
element="H"
mass="1.008"
annotation=""/>
</atomTypes>
<parameters>
</parameters>
</forcefield>
</ffml>

> <Initial Potential Energy>
102.15009

> <Initial RMS Gradient>
31.51494

> <Minimization Criteria>
CONJUG> Minimization exiting with gradient tolerance ( 0.0100000) satisfied.

> <CHARMm Energy>
47.62676

> <Potential Energy>
47.62676

> <RMS Gradient>
0.0099

> <Bond Energy>
3.34983

> <Angle Energy>
10.1263

> <STRBend>
0.15415

> <Dihedral Energy>
-0.72528

> <OOPLane>
0.01354

> <Van der Waals Energy>
35.62766

> <Electrostatic Energy>
-0.91943

> <Hydrogen Bond Energy>
0

> <Solvation Free Energy>
0

> <HasGasteigerCharges>
true

> <REMARK99>
REMARK  99  MacroMolecule created from Mol2 file
REMARK  99  CHEMBL1956358
REMARK  99  PROTEIN
REMARK  99  GASTEIGER
REMARK  99
REMARK  99

$$$$
CHEMBL1946567
  SciTegic05292516403D

 54 57  0  0  0  0            999 V2000
   -5.8621  -25.4507   -0.0288 C   0  0
   -5.7873  -26.8184   -0.3663 C   0  0
   -4.5022  -27.3853   -0.5761 C   0  0
   -4.7223  -24.6384    0.0676 C   0  0
   -3.4820  -25.2035   -0.1792 C   0  0
   -3.3723  -26.5658   -0.4736 C   0  0
   -2.0077  -26.8414   -0.6813 N   0  0
   -1.2645  -25.6331   -0.5901 C   0  0
   -2.1886  -24.5969   -0.2204 N   0  0
   -2.0142  -23.1995   -0.1806 C   0  0
   -0.6862  -22.5495    0.0878 C   0  0
    0.3443  -23.1507    0.8205 C   0  0
    1.5335  -22.4486    1.0911 C   0  0
    1.6857  -21.1283    0.6647 C   0  0
    0.6593  -20.4953   -0.0313 C   0  0
   -0.5207  -21.2002   -0.3134 C   0  0
   -1.4235  -28.0853   -1.1314 C   0  0
   -0.6127  -28.8246   -0.0803 C   0  0
   -1.2430  -29.6615    0.8487 C   0  0
   -0.4883  -30.3866    1.7807 C   0  0
    0.9082  -30.2894    1.8023 C   0  0
    1.5583  -29.4631    0.8800 C   0  0
    0.7933  -28.7174   -0.0348 C   0  0
    2.9105  -29.2206    0.9071 O   0  0
    3.7457  -30.2972    0.4397 C   0  0  1  0  0  0
    3.9512  -30.2474   -1.0830 C   0  0
    4.8117  -31.1859   -1.5675 O   0  0
    3.3453  -29.4866   -1.8305 O   0  0
    5.0767  -30.1395    1.1669 C   0  0
    3.1258  -20.2609    1.0327 Cl  0  0
   -7.0901  -27.6165   -0.5160 C   0  0
   -7.9184  -27.5042    0.5643 F   0  0
   -6.8485  -28.9488   -0.6766 F   0  0
   -7.8457  -27.2260   -1.5852 F   0  0
    1.7640  -31.1776    3.0164 Cl  0  0
   -2.9439  -22.4179   -0.4064 O   0  0
   -0.0706  -25.5198   -0.8217 O   0  0
   -6.8327  -24.9945    0.1495 H   0  0
   -4.4111  -28.4357   -0.8349 H   0  0
   -4.8470  -23.5858    0.3108 H   0  0
    0.2478  -24.1610    1.2081 H   0  0
    2.3293  -22.9373    1.6493 H   0  0
    0.7659  -19.4539   -0.3416 H   0  0
   -1.3234  -20.6727   -0.8349 H   0  0
   -2.2027  -28.7482   -1.5241 H   0  0
   -0.7679  -27.8562   -1.9815 H   0  0
   -2.3263  -29.7605    0.8535 H   0  0
   -1.0013  -31.0211    2.4997 H   0  0
    1.3081  -28.0494   -0.7268 H   0  0
    3.3070  -31.2735    0.6740 H   0  0
    5.2051  -31.8173   -0.9311 H   0  0
    5.7646  -30.9622    0.9522 H   0  0
    4.9208  -30.0970    2.2504 H   0  0
    5.5681  -29.2031    0.8788 H   0  0
  1  2  2  0
  1 38  1  0
  2  3  1  0
  2 31  1  0
  3  6  2  0
  3 39  1  0
  4  1  1  0
  4 40  1  0
  5  4  2  0
  5  6  1  0
  6  7  1  0
  7  8  1  0
  7 17  1  0
  8  9  1  0
  8 37  2  0
  9  5  1  0
  9 10  1  0
 10 11  1  0
 10 36  2  0
 11 12  2  0
 12 13  1  0
 12 41  1  0
 13 14  2  0
 13 42  1  0
 14 15  1  0
 14 30  1  0
 15 16  2  0
 15 43  1  0
 16 11  1  0
 16 44  1  0
 17 18  1  0
 17 45  1  0
 17 46  1  0
 18 19  2  0
 19 20  1  0
 19 47  1  0
 20 21  2  0
 20 48  1  0
 21 22  1  0
 21 35  1  0
 22 23  2  0
 22 24  1  0
 23 18  1  0
 23 49  1  0
 24 25  1  0
 25 26  1  0
 25 29  1  0
 25 50  1  0
 26 27  1  0
 26 28  2  0
 27 51  1  0
 29 52  1  0
 29 53  1  0
 29 54  1  0
 31 32  1  0
 31 33  1  0
 31 34  1  0
M  END
> <Name>
CHEMBL1946567

> <Clean Energy>
72.880501

> <chembl_id>
CHEMBL1946567

> <chembl_pref_name>
None

> <efficacy>
0.21

> <Forcefield>
MMFF

> <ForcefieldBase>
MMFF

> <ForcefieldFFML>
<?xml version="1.0" encoding="UTF-8"?>
<!DOCTYPE ffml SYSTEM "Ffml.dtd">
<ffml version="1.0">
<forcefield name="MMFF" derivedFrom="MMFF" base="MMFF">
<atomTypes>
<atomType
name="C100"
element="C"
mass="12.011"
annotation=""/>
<atomType
name="N101"
element="N"
mass="14.007"
annotation=""/>
<atomType
name="O102"
element="O"
mass="16"
annotation=""/>
<atomType
name="Cl103"
element="Cl"
mass="35.453"
annotation=""/>
<atomType
name="F104"
element="F"
mass="18.998"
annotation=""/>
<atomType
name="H105"
element="H"
mass="1.008"
annotation=""/>
</atomTypes>
<parameters>
</parameters>
</forcefield>
</ffml>

> <Initial Potential Energy>
256.97093

> <Initial RMS Gradient>
35.44633

> <Minimization Criteria>
CONJUG> Minimization exiting with gradient tolerance ( 0.0100000) satisfied.

> <CHARMm Energy>
89.58024

> <Potential Energy>
89.58024

> <RMS Gradient>
0.0099

> <Bond Energy>
12.90822

> <Angle Energy>
37.24868

> <STRBend>
-2.37427

> <Dihedral Energy>
9.88854

> <OOPLane>
0.57927

> <Van der Waals Energy>
59.27774

> <Electrostatic Energy>
-27.94794

> <Hydrogen Bond Energy>
0

> <Solvation Free Energy>
0

> <HasGasteigerCharges>
true

> <REMARK99>
REMARK  99  MacroMolecule created from Mol2 file
REMARK  99  CHEMBL1946567
REMARK  99  PROTEIN
REMARK  99  GASTEIGER
REMARK  99
REMARK  99

$$$$
CHEMBL1946755
  SciTegic05292516403D

 58 62  0  0  0  0            999 V2000
   -5.4057  -23.8770   -0.7511 C   0  0
   -5.4687  -25.2191   -0.3104 C   0  0
   -4.2977  -25.8047    0.2178 C   0  0
   -4.2289  -23.1124   -0.6588 C   0  0
   -3.0994  -23.6927   -0.1075 C   0  0
   -3.1406  -25.0317    0.3060 C   0  0
   -1.8747  -25.3578    0.8180 N   0  0
   -1.0494  -24.2040    0.7926 C   0  0
   -1.7997  -23.1858    0.1643 N   0  0
    0.0665  -24.1478    1.2849 O   0  0
   -1.3832  -21.8709   -0.0689 C   0  0
   -1.4493  -26.6161    1.3794 C   0  0
   -0.3932  -27.2970    0.5309 C   0  0
   -0.7487  -28.0345   -0.6016 C   0  0
    0.2413  -28.5938   -1.4155 C   0  0
    1.6002  -28.4269   -1.1140 C   0  0
    1.9754  -27.7176    0.0325 C   0  0
    0.9736  -27.1455    0.8317 C   0  0
    3.2500  -27.4018    0.4230 O   0  0
    4.1968  -28.4695    0.5177 C   0  0  1  0  0  0
    5.3759  -28.1844   -0.4071 C   0  0
    6.0882  -29.2977   -0.7255 O   0  0
    5.7224  -27.0842   -0.8136 O   0  0
    4.7024  -28.5068    1.9552 C   0  0
   -6.7935  -25.9786   -0.3725 C   0  0
   -7.5470  -25.6725   -1.4687 F   0  0
   -6.6119  -27.3297   -0.4032 F   0  0
   -7.5973  -25.7282    0.7012 F   0  0
    2.7315  -29.0656   -2.2535 Cl  0  0
   -1.5717  -19.7273   -0.4951 O   0  0
   -2.2607  -20.9064   -0.3991 N   0  0
   -0.2574  -19.9459   -0.2695 C   0  0
   -0.0555  -21.2942   -0.0130 C   0  0
    1.2834  -21.6930    0.1925 C   0  0
    2.3177  -20.7314    0.1630 C   0  0
    2.0465  -19.3821   -0.0786 C   0  0
    0.7339  -18.9623   -0.2999 C   0  0
    2.9737  -18.3736   -0.1236 O   0  0
    4.3374  -18.7816   -0.0949 C   0  0
   -6.2948  -23.4052   -1.1696 H   0  0
   -4.3059  -26.8335    0.5618 H   0  0
   -4.2504  -22.0849   -1.0079 H   0  0
   -1.0382  -26.4180    2.3771 H   0  0
   -2.3009  -27.2894    1.5219 H   0  0
   -1.7943  -28.1550   -0.8769 H   0  0
   -0.0561  -29.1366   -2.3105 H   0  0
    1.2724  -26.5386    1.6868 H   0  0
    3.7527  -29.4410    0.2754 H   0  0
    5.7913  -30.1598   -0.3695 H   0  0
    5.4486  -29.2950    2.0969 H   0  0
    3.8728  -28.6797    2.6490 H   0  0
    5.1587  -27.5506    2.2363 H   0  0
    1.5522  -22.7307    0.3628 H   0  0
    3.3351  -21.0790    0.3373 H   0  0
    0.4978  -17.9199   -0.4974 H   0  0
    4.9541  -17.8867   -0.2231 H   0  0
    4.5684  -19.4633   -0.9205 H   0  0
    4.5952  -19.2241    0.8728 H   0  0
  1  2  2  0
  1 40  1  0
  2  3  1  0
  2 25  1  0
  3  6  2  0
  3 41  1  0
  4  1  1  0
  4 42  1  0
  5  4  2  0
  5  6  1  0
  6  7  1  0
  7  8  1  0
  7 12  1  0
  8  9  1  0
  8 10  2  0
  9  5  1  0
  9 11  1  0
 11 33  1  0
 12 13  1  0
 12 43  1  0
 12 44  1  0
 13 14  2  0
 14 15  1  0
 14 45  1  0
 15 16  2  0
 15 46  1  0
 16 17  1  0
 16 29  1  0
 17 18  2  0
 17 19  1  0
 18 13  1  0
 18 47  1  0
 19 20  1  0
 20 21  1  0
 20 24  1  0
 20 48  1  0
 21 22  1  0
 21 23  2  0
 22 49  1  0
 24 50  1  0
 24 51  1  0
 24 52  1  0
 25 26  1  0
 25 27  1  0
 25 28  1  0
 30 31  1  0
 31 11  2  0
 32 30  1  0
 32 33  2  0
 33 34  1  0
 34 35  2  0
 34 53  1  0
 35 36  1  0
 35 54  1  0
 36 37  2  0
 36 38  1  0
 37 32  1  0
 37 55  1  0
 38 39  1  0
 39 56  1  0
 39 57  1  0
 39 58  1  0
M  END
> <Name>
CHEMBL1946755

> <Clean Energy>
88.742203

> <chembl_id>
CHEMBL1946755

> <chembl_pref_name>
None

> <efficacy>
0.28

> <Forcefield>
MMFF

> <ForcefieldBase>
MMFF

> <ForcefieldFFML>
<?xml version="1.0" encoding="UTF-8"?>
<!DOCTYPE ffml SYSTEM "Ffml.dtd">
<ffml version="1.0">
<forcefield name="MMFF" derivedFrom="MMFF" base="MMFF">
<atomTypes>
<atomType
name="C100"
element="C"
mass="12.011"
annotation=""/>
<atomType
name="N101"
element="N"
mass="14.007"
annotation=""/>
<atomType
name="O102"
element="O"
mass="16"
annotation=""/>
<atomType
name="F103"
element="F"
mass="18.998"
annotation=""/>
<atomType
name="Cl104"
element="Cl"
mass="35.453"
annotation=""/>
<atomType
name="H105"
element="H"
mass="1.008"
annotation=""/>
</atomTypes>
<parameters>
</parameters>
</forcefield>
</ffml>

> <Initial Potential Energy>
215.71599

> <Initial RMS Gradient>
33.45363

> <Minimization Criteria>
STEEPD> Minimization exiting with gradient tolerance ( 3.0000000) satisfied.

> <CHARMm Energy>
96.71011

> <Potential Energy>
96.71011

> <RMS Gradient>
0.02815

> <Bond Energy>
9.63346

> <Angle Energy>
47.56938

> <STRBend>
-2.23272

> <Dihedral Energy>
5.35301

> <OOPLane>
0.26314

> <Van der Waals Energy>
64.35809

> <Electrostatic Energy>
-28.23424

> <Hydrogen Bond Energy>
0

> <Solvation Free Energy>
0

> <HasGasteigerCharges>
true

> <REMARK99>
REMARK  99  MacroMolecule created from Mol2 file
REMARK  99  CHEMBL1946755
REMARK  99  PROTEIN
REMARK  99  GASTEIGER
REMARK  99
REMARK  99

$$$$
CHEMBL183191
  SciTegic05292516403D

 51 53  0  0  0  0            999 V2000
   10.5982   -1.6122   -1.2875 C   0  0
   10.2719   -3.0247   -1.5949 C   0  0
    9.7679   -0.9037   -0.4981 C   0  0
    8.2580   -2.7785   -0.2630 C   0  0
    8.5521   -1.5015    0.0150 C   0  0
    9.1168   -3.5486   -1.0805 O   0  0
   11.8036   -1.0827   -1.8475 C   0  0
   12.7823   -0.6206   -2.2708 N   0  0
    7.0450   -3.4884    0.2086 C   0  0
   11.0296   -3.7075   -2.2810 O   0  0
   10.0338    0.7739   -0.0800 S   0  0
    6.4194   -3.1698    1.4272 C   0  0
    6.4996   -4.5379   -0.5515 C   0  0
    0.1151   -4.8979    0.1756 N   0  0
   -1.0066   -5.8454   -0.0091 C   0  0
    4.7266   -4.8570    1.0581 C   0  0
    5.2664   -3.8482    1.8502 C   0  0
    5.3533   -5.2236   -0.1276 C   0  0
   -2.3557   -5.1756   -0.1847 C   0  0
    3.5919   -5.5252    1.4406 O   0  0
    2.4260   -4.7198    1.1842 C   0  0
    1.3252   -5.6278    0.6116 C   0  0
   11.3095    0.6133    1.1970 C   0  0
    0.3843   -4.1652   -1.0721 C   0  0
   -2.7651   -4.1470    0.6771 C   0  0
   -3.2427   -5.6140   -1.1789 C   0  0
   -4.5040   -5.0278   -1.3160 C   0  0
   -4.0248   -3.5608    0.5375 C   0  0
   -4.8959   -4.0018   -0.4579 C   0  0
    7.8843   -0.8845    0.6101 H   0  0
    6.8210   -2.3956    2.0765 H   0  0
    6.9526   -4.8346   -1.4953 H   0  0
   -0.7991   -6.5154   -0.8540 H   0  0
   -1.1047   -6.4820    0.8805 H   0  0
    4.8020   -3.5889    2.7975 H   0  0
    4.9538   -6.0337   -0.7307 H   0  0
    2.0969   -4.2805    2.1334 H   0  0
    2.6532   -3.9011    0.4915 H   0  0
    1.0657   -6.3389    1.4077 H   0  0
    1.7305   -6.2405   -0.2052 H   0  0
   11.5369    1.6032    1.6017 H   0  0
   12.2284    0.1895    0.7846 H   0  0
   10.9533   -0.0220    2.0127 H   0  0
   -0.5025   -3.6183   -1.4099 H   0  0
    0.6995   -4.8339   -1.8814 H   0  0
    1.1575   -3.4045   -0.9317 H   0  0
   -2.0925   -3.7970    1.4582 H   0  0
   -2.9606   -6.4194   -1.8532 H   0  0
   -5.1806   -5.3745   -2.0924 H   0  0
   -4.3245   -2.7609    1.2089 H   0  0
   -5.8773   -3.5467   -0.5642 H   0  0
  2  1  1  0
  3  1  2  0
  4  5  2  0
  5  3  1  0
  5 30  1  0
  6  2  1  0
  6  4  1  0
  7  1  1  0
  8  7  3  0
  9  4  1  0
 10  2  2  0
 11  3  1  0
 12  9  2  0
 12 31  1  0
 13  9  1  0
 13 32  1  0
 14 22  1  0
 15 14  1  0
 15 33  1  0
 15 34  1  0
 16 18  1  0
 17 12  1  0
 17 16  2  0
 17 35  1  0
 18 13  2  0
 18 36  1  0
 19 15  1  0
 20 16  1  0
 21 20  1  0
 21 37  1  0
 21 38  1  0
 22 21  1  0
 22 39  1  0
 22 40  1  0
 23 11  1  0
 23 41  1  0
 23 42  1  0
 23 43  1  0
 24 14  1  0
 24 44  1  0
 24 45  1  0
 24 46  1  0
 25 19  1  0
 25 47  1  0
 26 19  2  0
 26 48  1  0
 27 26  1  0
 27 49  1  0
 28 25  2  0
 28 29  1  0
 28 50  1  0
 29 27  2  0
 29 51  1  0
M  END
> <Name>
CHEMBL183191

> <Clean Energy>
56.823799

> <chembl_id>
CHEMBL183191

> <chembl_pref_name>
None

> <efficacy>
0.07

> <Forcefield>
MMFF

> <ForcefieldBase>
MMFF

> <ForcefieldFFML>
<?xml version="1.0" encoding="UTF-8"?>
<!DOCTYPE ffml SYSTEM "Ffml.dtd">
<ffml version="1.0">
<forcefield name="MMFF" derivedFrom="MMFF" base="MMFF">
<atomTypes>
<atomType
name="C100"
element="C"
mass="12.011"
annotation=""/>
<atomType
name="O101"
element="O"
mass="16"
annotation=""/>
<atomType
name="N102"
element="N"
mass="14.007"
annotation=""/>
<atomType
name="S103"
element="S"
mass="32.066"
annotation=""/>
<atomType
name="H104"
element="H"
mass="1.008"
annotation=""/>
</atomTypes>
<parameters>
</parameters>
</forcefield>
</ffml>

> <Initial Potential Energy>
279.86623

> <Initial RMS Gradient>
43.59617

> <Minimization Criteria>
STEEPD> Minimization exiting with gradient tolerance ( 3.0000000) satisfied.

> <CHARMm Energy>
65.20764

> <Potential Energy>
65.20764

> <RMS Gradient>
0.01624

> <Bond Energy>
6.29793

> <Angle Energy>
16.63539

> <STRBend>
0.48923

> <Dihedral Energy>
9.28084

> <OOPLane>
0.03637

> <Van der Waals Energy>
59.44388

> <Electrostatic Energy>
-26.97601

> <Hydrogen Bond Energy>
0

> <Solvation Free Energy>
0

> <HasGasteigerCharges>
true

> <REMARK99>
REMARK  99  MacroMolecule created from Mol2 file
REMARK  99  CHEMBL183191
REMARK  99  PROTEIN
REMARK  99  GASTEIGER
REMARK  99
REMARK  99

$$$$
CHEMBL4101759
  SciTegic05292516403D

 60 64  0  0  0  0            999 V2000
   14.3460  -10.4430    0.2082 C   0  0
   14.4995  -11.4980   -0.7077 C   0  0
   15.7543  -11.8768   -1.2058 C   0  0
   15.4871   -9.7358    0.6279 C   0  0
   16.7491  -10.0916    0.1303 C   0  0
   16.8653  -11.1478   -0.7632 C   0  0
   18.2192  -11.2190   -1.0285 N   0  0
   18.8428  -10.1901   -0.3430 C   0  0
   17.9691   -9.5312    0.3916 N   0  0
   20.3015   -9.8528   -0.3897 C   0  0
   20.6823   -9.1099   -1.6684 C   0  0
   22.1637   -8.7677   -1.6872 C   0  0
   18.8319  -12.1911   -1.9255 C   0  0
   19.9580  -12.9663   -1.2904 C   0  0
   21.1724  -13.1121   -1.9791 C   0  0
   22.2693  -13.7225   -1.3661 C   0  0
   22.1773  -14.2013   -0.0521 C   0  0
   20.9376  -14.1233    0.6030 C   0  0
   19.8351  -13.5233   -0.0104 C   0  0
   23.3505  -14.7602    0.6356 C   0  0
   23.3723  -16.1450    0.8970 C   0  0
   24.4492  -16.7438    1.5509 C   0  0
   25.5319  -15.9722    1.9543 C   0  0
   25.5422  -14.6020    1.7020 C   0  0
   24.4604  -13.9857    1.0471 C   0  0
   13.0154  -10.0791    0.7145 C   0  0
   12.5488   -8.7576    0.6197 C   0  0
   11.2855   -8.4086    1.0966 C   0  0
   10.4763   -9.3825    1.6747 C   0  0
   10.9155  -10.6984    1.7838 C   0  0
   12.1805  -11.0424    1.3063 C   0  0
   24.5025  -12.5088    0.8494 C   0  0
   25.7675  -12.0480    0.7651 O   0  0
   23.5649  -11.7409    0.7516 O   0  0
    8.9220   -8.9553    2.2657 Cl  0  0
   13.6172  -12.0378   -1.0562 H   0  0
   15.8425  -12.6979   -1.9083 H   0  0
   15.4254   -8.9208    1.3403 H   0  0
   20.5282   -9.2108    0.4715 H   0  0
   20.9207  -10.7417   -0.2567 H   0  0
   20.4485   -9.7138   -2.5516 H   0  0
   20.0961   -8.1866   -1.7538 H   0  0
   22.4183   -8.2386   -2.6107 H   0  0
   22.7759   -9.6738   -1.6343 H   0  0
   22.4284   -8.1237   -0.8424 H   0  0
   18.0722  -12.9009   -2.2659 H   0  0
   19.1706  -11.6278   -2.8016 H   0  0
   21.2870  -12.7063   -2.9816 H   0  0
   23.2117  -13.7885   -1.9076 H   0  0
   20.8355  -14.4939    1.6217 H   0  0
   18.9022  -13.4432    0.5458 H   0  0
   22.5405  -16.7736    0.5831 H   0  0
   24.4348  -17.8124    1.7462 H   0  0
   26.3673  -16.4322    2.4724 H   0  0
   26.3950  -14.0140    2.0355 H   0  0
   13.1824   -7.9952    0.1672 H   0  0
   10.9460   -7.3810    1.0133 H   0  0
   10.2861  -11.4565    2.2412 H   0  0
   12.5318  -12.0676    1.4143 H   0  0
   25.6386  -11.0861    0.6253 H   0  0
  1  2  2  0
  1 26  1  0
  2  3  1  0
  2 36  1  0
  3  6  2  0
  3 37  1  0
  4  1  1  0
  4 38  1  0
  5  4  2  0
  5  6  1  0
  6  7  1  0
  7  8  1  0
  7 13  1  0
  8  9  2  0
  8 10  1  0
  9  5  1  0
 10 11  1  0
 10 39  1  0
 10 40  1  0
 11 12  1  0
 11 41  1  0
 11 42  1  0
 12 43  1  0
 12 44  1  0
 12 45  1  0
 13 14  1  0
 13 46  1  0
 13 47  1  0
 14 15  2  0
 15 16  1  0
 15 48  1  0
 16 17  2  0
 16 49  1  0
 17 18  1  0
 17 20  1  0
 18 19  2  0
 18 50  1  0
 19 14  1  0
 19 51  1  0
 20 21  2  0
 21 22  1  0
 21 52  1  0
 22 23  2  0
 22 53  1  0
 23 24  1  0
 23 54  1  0
 24 25  2  0
 24 55  1  0
 25 20  1  0
 25 32  1  0
 26 27  2  0
 27 28  1  0
 27 56  1  0
 28 29  2  0
 28 57  1  0
 29 30  1  0
 29 35  1  0
 30 31  2  0
 30 58  1  0
 31 26  1  0
 31 59  1  0
 32 33  1  0
 32 34  2  0
 33 60  1  0
M  END
> <Name>
CHEMBL4101759

> <Clean Energy>
51.132702

> <chembl_id>
CHEMBL4101759

> <chembl_pref_name>
None

> <efficacy>
0.349477683

> <Forcefield>
MMFF

> <ForcefieldBase>
MMFF

> <ForcefieldFFML>
<?xml version="1.0" encoding="UTF-8"?>
<!DOCTYPE ffml SYSTEM "Ffml.dtd">
<ffml version="1.0">
<forcefield name="MMFF" derivedFrom="MMFF" base="MMFF">
<atomTypes>
<atomType
name="C100"
element="C"
mass="12.011"
annotation=""/>
<atomType
name="N101"
element="N"
mass="14.007"
annotation=""/>
<atomType
name="O102"
element="O"
mass="16"
annotation=""/>
<atomType
name="Cl103"
element="Cl"
mass="35.453"
annotation=""/>
<atomType
name="H104"
element="H"
mass="1.008"
annotation=""/>
</atomTypes>
<parameters>
</parameters>
</forcefield>
</ffml>

> <Initial Potential Energy>
288.55751

> <Initial RMS Gradient>
38.26281

> <Minimization Criteria>
STEEPD> Minimization exiting with gradient tolerance ( 3.0000000) satisfied.

> <CHARMm Energy>
86.63405

> <Potential Energy>
86.63405

> <RMS Gradient>
0.12475

> <Bond Energy>
8.81515

> <Angle Energy>
10.70586

> <STRBend>
-0.51235

> <Dihedral Energy>
11.07579

> <OOPLane>
0.04938

> <Van der Waals Energy>
70.80533

> <Electrostatic Energy>
-14.30512

> <Hydrogen Bond Energy>
0

> <Solvation Free Energy>
0

> <HasGasteigerCharges>
true

> <REMARK99>
REMARK  99  MacroMolecule created from Mol2 file
REMARK  99  CHEMBL4101759
REMARK  99  PROTEIN
REMARK  99  GASTEIGER
REMARK  99
REMARK  99

$$$$
CHEMBL1090550
  SciTegic05292516403D

 61 65  0  0  0  0            999 V2000
   -0.6704  -13.5047    0.4989 C   0  0
   -1.7744  -12.7053    0.2072 C   0  0
   -3.0930  -14.7221   -0.0367 C   0  0
   -2.9803  -13.3121   -0.0830 C   0  0
   -4.4098  -15.1049   -0.2813 O   0  0
   -5.1671  -13.9331   -0.4263 C   0  0
   -4.2745  -12.7303   -0.5833 C   0  0  1  0  0  0
   -4.8804  -11.5661    0.1945 C   0  0
   -6.3741  -11.4077    0.1390 C   0  0
   -7.1162  -12.5077   -0.1323 C   0  0
   -6.4975  -13.8284   -0.2504 C   0  0
   -8.5059  -12.5156   -0.2375 O   0  0
   -7.0484  -10.0971    0.3399 C   0  0
   -6.2357   -8.8307    0.3835 C   0  0
   -8.2769  -10.0565    0.4474 O   0  0
   -4.1796  -10.7272    0.7655 O   0  0
   -4.1276  -12.3237   -2.0584 C   0  0
   -1.6022  -11.3558    0.2104 O   0  0
   -0.7756  -14.9077    0.4906 C   0  0
   -1.9853  -15.5409    0.2319 C   0  0
   -1.9897  -17.0204    0.3256 C   0  0
   -0.7518  -17.6878    0.2728 N   0  0
    0.4677  -16.8992    0.2440 C   0  0  1  0  0  0
    0.3387  -15.6053    0.8449 O   0  0
   -3.0714  -17.5615    0.5375 O   0  0
   -0.7427  -19.0129   -0.1695 C   0  0
    0.4087  -19.7420    0.0612 N   0  0
   -1.6885  -19.5128   -0.7780 O   0  0
    0.5032  -21.1275   -0.3544 C   0  0
    1.8765  -21.7193   -0.1626 C   0  0
    2.0283  -22.8166    0.7045 C   0  0
    3.2786  -23.4109    0.9088 C   0  0
    4.4075  -22.9219    0.2541 C   0  0
    4.2915  -21.8378   -0.6119 C   0  0
    3.0321  -21.2538   -0.8192 C   0  0
    1.5079  -17.6009    0.9499 O   0  0
    2.7764  -16.9716    0.7914 C   0  0
    2.9742  -20.1062   -1.7093 N   0  3
    2.1300  -20.1043   -2.6146 O   0  0
    3.7342  -19.1582   -1.4577 O   0  5
    0.2821  -13.0355    0.7359 H   0  0
   -7.1149  -14.7069   -0.0863 H   0  0
   -8.8727  -11.6171   -0.0423 H   0  0
   -6.9009   -7.9738    0.2372 H   0  0
   -5.5016   -8.8154   -0.4262 H   0  0
   -5.7495   -8.7314    1.3567 H   0  0
   -5.0808  -11.9927   -2.4872 H   0  0
   -3.7577  -13.1496   -2.6783 H   0  0
   -3.4223  -11.4908   -2.1668 H   0  0
   -2.4404  -10.9049    0.4607 H   0  0
    0.7652  -16.7888   -0.8083 H   0  0
    1.0700  -19.3453    0.7228 H   0  0
   -0.2388  -21.6799    0.2356 H   0  0
    0.1866  -21.2230   -1.3993 H   0  0
    1.1656  -23.2231    1.2325 H   0  0
    3.3700  -24.2607    1.5833 H   0  0
    5.3758  -23.3873    0.4215 H   0  0
    5.1757  -21.4542   -1.1166 H   0  0
    3.5378  -17.6284    1.2207 H   0  0
    2.8014  -16.0200    1.3302 H   0  0
    3.0063  -16.8099   -0.2656 H   0  0
  1  2  2  0
  1 41  1  0
  2  4  1  0
  2 18  1  0
  3  4  2  0
  3 20  1  0
  4  7  1  0
  5  3  1  0
  6  5  1  0
  6  7  1  0
  7  8  1  0
  7 17  1  0
  8  9  1  0
  8 16  2  0
  9 10  2  0
  9 13  1  0
 10 11  1  0
 10 12  1  0
 11  6  2  0
 11 42  1  0
 12 43  1  0
 13 14  1  0
 13 15  2  0
 14 44  1  0
 14 45  1  0
 14 46  1  0
 17 47  1  0
 17 48  1  0
 17 49  1  0
 18 50  1  0
 19  1  1  0
 19 20  2  0
 19 24  1  0
 20 21  1  0
 21 22  1  0
 21 25  2  0
 22 23  1  0
 22 26  1  0
 23 24  1  0
 23 36  1  0
 23 51  1  0
 26 27  1  0
 26 28  2  0
 27 29  1  0
 27 52  1  0
 29 30  1  0
 29 53  1  0
 29 54  1  0
 30 31  2  0
 31 32  1  0
 31 55  1  0
 32 33  2  0
 32 56  1  0
 33 34  1  0
 33 57  1  0
 34 35  2  0
 34 58  1  0
 35 30  1  0
 35 38  1  0
 36 37  1  0
 37 59  1  0
 37 60  1  0
 37 61  1  0
 38 39  2  0
 38 40  1  0
M  CHG  2  38   1  40  -1
M  END
> <Name>
CHEMBL1090550

> <Clean Energy>
71.687202

> <chembl_id>
CHEMBL1090550

> <chembl_pref_name>
None

> <efficacy>
0.442105263

> <Forcefield>
MMFF

> <ForcefieldBase>
MMFF

> <ForcefieldFFML>
<?xml version="1.0" encoding="UTF-8"?>
<!DOCTYPE ffml SYSTEM "Ffml.dtd">
<ffml version="1.0">
<forcefield name="MMFF" derivedFrom="MMFF" base="MMFF">
<atomTypes>
<atomType
name="C100"
element="C"
mass="12.011"
annotation=""/>
<atomType
name="O101"
element="O"
mass="16"
annotation=""/>
<atomType
name="N102"
element="N"
mass="14.007"
annotation=""/>
<atomType
name="H103"
element="H"
mass="1.008"
annotation=""/>
</atomTypes>
<parameters>
</parameters>
</forcefield>
</ffml>

> <Initial Potential Energy>
93.87173

> <Initial RMS Gradient>
31.93878

> <Minimization Criteria>
CONJUG> Minimization exiting with gradient tolerance ( 0.0100000) satisfied.

> <CHARMm Energy>
-28.00202

> <Potential Energy>
-28.00202

> <RMS Gradient>
0.0092

> <Bond Energy>
8.92362

> <Angle Energy>
33.82951

> <STRBend>
0.90669

> <Dihedral Energy>
24.40942

> <OOPLane>
1.25446

> <Van der Waals Energy>
76.34264

> <Electrostatic Energy>
-173.66834

> <Hydrogen Bond Energy>
0

> <Solvation Free Energy>
0

> <HasGasteigerCharges>
true

> <REMARK99>
REMARK  99  MacroMolecule created from Mol2 file
REMARK  99  CHEMBL1090550
REMARK  99  PROTEIN
REMARK  99  GASTEIGER
REMARK  99
REMARK  99

$$$$
CHEMBL1172426
  SciTegic05292516403D

 46 48  0  0  0  0            999 V2000
    4.3622    0.9861    0.3949 C   0  0
    5.4796    0.6801   -0.2638 N   0  0
    5.4358   -0.4496   -0.9913 C   0  0
    4.3375   -1.2723   -1.0765 C   0  0
    3.2120   -0.8586   -0.3857 C   0  0
    3.2342    0.2600    0.3635 N   0  0
    4.3823   -2.5322   -1.8241 C   0  0
    4.6042   -2.5312   -3.0264 O   0  0
    4.1583   -3.6583   -1.0719 N   0  0
    4.4150    2.4168    1.4370 S   0  0
    2.6607    2.8558    1.4553 C   0  0
    2.0509   -1.6138   -0.3716 N   0  0
   -0.1930   -2.1862    0.2589 C   0  0
   -0.1568   -3.4236    0.9199 C   0  0
   -1.1702   -4.3602    0.7208 C   0  0
   -2.2229   -4.0709   -0.1448 C   0  0
   -2.2659   -2.8482   -0.8119 C   0  0
   -1.2548   -1.9087   -0.6140 C   0  0
    0.9283   -1.1939    0.4424 C   0  0
    4.2404   -4.9895   -1.6244 C   0  0
    4.6107   -5.9598   -0.5349 C   0  0
    5.9596   -6.2100   -0.2437 C   0  0
    6.3100   -7.0523    0.8113 C   0  0
    5.3177   -7.6438    1.5904 C   0  0
    3.9737   -7.3989    1.3129 C   0  0
    3.6198   -6.5587    0.2563 C   0  0
    6.9508   -0.8058   -1.7284 Cl  0  0
    3.9075   -3.5718   -0.0932 H   0  0
    2.5349    3.7953    2.0003 H   0  0
    2.0711    2.0865    1.9619 H   0  0
    2.2848    2.9957    0.4378 H   0  0
    1.8295   -2.1602   -1.1981 H   0  0
    0.6671   -3.6614    1.5896 H   0  0
   -1.1387   -5.3155    1.2380 H   0  0
   -3.0119   -4.7995   -0.3023 H   0  0
   -3.0884   -2.6267   -1.4878 H   0  0
   -1.3024   -0.9605   -1.1469 H   0  0
    1.2033   -1.1561    1.5041 H   0  0
    0.5880   -0.1913    0.1545 H   0  0
    3.2631   -5.2381   -2.0530 H   0  0
    4.9713   -5.0176   -2.4405 H   0  0
    6.7451   -5.7413   -0.8340 H   0  0
    7.3583   -7.2474    1.0273 H   0  0
    5.5959   -8.2967    2.4142 H   0  0
    3.2020   -7.8626    1.9218 H   0  0
    2.5675   -6.3673    0.0572 H   0  0
  1  2  1  0
  1  6  2  0
  1 10  1  0
  2  3  2  0
  3  4  1  0
  3 27  1  0
  4  5  2  0
  4  7  1  0
  5  6  1  0
  5 12  1  0
  7  8  2  0
  7  9  1  0
  9 20  1  0
  9 28  1  0
 10 11  1  0
 11 29  1  0
 11 30  1  0
 11 31  1  0
 12 19  1  0
 12 32  1  0
 13 14  2  0
 13 18  1  0
 14 15  1  0
 14 33  1  0
 15 16  2  0
 15 34  1  0
 16 17  1  0
 16 35  1  0
 17 18  2  0
 17 36  1  0
 18 37  1  0
 19 13  1  0
 19 38  1  0
 19 39  1  0
 20 21  1  0
 20 40  1  0
 20 41  1  0
 21 22  2  0
 22 23  1  0
 22 42  1  0
 23 24  2  0
 23 43  1  0
 24 25  1  0
 24 44  1  0
 25 26  2  0
 25 45  1  0
 26 21  1  0
 26 46  1  0
M  END
> <Name>
CHEMBL1172426

> <Clean Energy>
11.5517

> <chembl_id>
CHEMBL1172426

> <chembl_pref_name>
None

> <efficacy>
0.4

> <Forcefield>
MMFF

> <ForcefieldBase>
MMFF

> <ForcefieldFFML>
<?xml version="1.0" encoding="UTF-8"?>
<!DOCTYPE ffml SYSTEM "Ffml.dtd">
<ffml version="1.0">
<forcefield name="MMFF" derivedFrom="MMFF" base="MMFF">
<atomTypes>
<atomType
name="C100"
element="C"
mass="12.011"
annotation=""/>
<atomType
name="N101"
element="N"
mass="14.007"
annotation=""/>
<atomType
name="O102"
element="O"
mass="16"
annotation=""/>
<atomType
name="S103"
element="S"
mass="32.066"
annotation=""/>
<atomType
name="Cl104"
element="Cl"
mass="35.453"
annotation=""/>
<atomType
name="H105"
element="H"
mass="1.008"
annotation=""/>
</atomTypes>
<parameters>
</parameters>
</forcefield>
</ffml>

> <Initial Potential Energy>
175.27392

> <Initial RMS Gradient>
89.65597

> <Minimization Criteria>
CONJUG> Minimization exiting with gradient tolerance ( 0.0100000) satisfied.

> <CHARMm Energy>
-54.31615

> <Potential Energy>
-54.31615

> <RMS Gradient>
0.00821

> <Bond Energy>
3.19597

> <Angle Energy>
9.63012

> <STRBend>
-0.23302

> <Dihedral Energy>
10.71055

> <OOPLane>
1.25891

> <Van der Waals Energy>
51.50057

> <Electrostatic Energy>
-130.37924

> <Hydrogen Bond Energy>
0

> <Solvation Free Energy>
0

> <HasGasteigerCharges>
true

> <REMARK99>
REMARK  99  MacroMolecule created from Mol2 file
REMARK  99  CHEMBL1172426
REMARK  99  PROTEIN
REMARK  99  GASTEIGER
REMARK  99
REMARK  99

$$$$
CHEMBL2338477
  SciTegic05292516403D

 43 46  0  0  0  0            999 V2000
   30.6459  -21.1584    0.3870 C   0  0
   30.1260  -21.4269   -0.8824 C   0  0
   29.7228  -20.3599   -1.6923 C   0  0
   29.7623  -19.0461   -1.2108 C   0  0
   30.2119  -18.7880    0.0840 C   0  0
   30.6823  -19.8461    0.8672 C   0  0
   29.3490  -16.1626    0.1590 S   0  0
   30.2259  -17.4973    0.6807 N   0  0
   27.6509  -16.6711    0.2632 C   0  0
   26.6773  -16.1611   -0.6008 C   0  0
   25.3641  -16.6459   -0.5223 C   0  0
   25.0257  -17.6131    0.4219 C   0  0
   25.9815  -18.0944    1.3106 C   0  0
   27.2918  -17.6199    1.2376 C   0  0
   30.0575  -22.7121   -1.3688 O   0  0
   29.0451  -23.5136   -0.8809 C   0  0
   29.7190  -15.9199   -1.2170 O   0  0
   29.5378  -15.1568    1.1825 O   0  0
   23.4148  -18.2083    0.5013 Cl  0  0
   26.9575  -14.9044   -1.7487 Cl  0  0
   29.1273  -20.6251   -3.2917 Cl  0  0
   31.2589  -22.4078    1.4093 Cl  0  0
   27.7913  -23.0486   -0.4815 C   0  0
   28.3503  -25.7748   -0.3612 C   0  0
   29.3171  -24.8796   -0.8340 C   0  0
   27.1064  -25.3297    0.0675 C   0  0
   26.8247  -23.9501   -0.0014 C   0  0
   25.5594  -23.5197    0.4173 C   0  0
   24.6295  -24.4440    0.8823 C   0  0
   24.9945  -25.7764    0.9125 C   0  0
   26.2087  -26.2235    0.5211 N   0  0
   29.4425  -18.2452   -1.8716 H   0  0
   31.0701  -19.6587    1.8660 H   0  0
   30.7595  -17.3210    1.5326 H   0  0
   24.5992  -16.2580   -1.1926 H   0  0
   25.7128  -18.8325    2.0632 H   0  0
   28.0202  -17.9942    1.9532 H   0  0
   27.5423  -21.9945   -0.5483 H   0  0
   28.5709  -26.8414   -0.3260 H   0  0
   30.2876  -25.2469   -1.1557 H   0  0
   25.2892  -22.4675    0.3818 H   0  0
   23.6532  -24.1099    1.2107 H   0  0
   24.3103  -26.5504    1.2597 H   0  0
  1  2  1  0
  1  6  2  0
  1 22  1  0
  2  3  2  0
  2 15  1  0
  3  4  1  0
  3 21  1  0
  4  5  2  0
  4 32  1  0
  5  6  1  0
  5  8  1  0
  6 33  1  0
  7  8  1  0
  7  9  1  0
  7 17  2  0
  7 18  2  0
  8 34  1  0
  9 10  1  0
  9 14  2  0
 10 11  2  0
 10 20  1  0
 11 12  1  0
 11 35  1  0
 12 13  2  0
 12 19  1  0
 13 14  1  0
 13 36  1  0
 14 37  1  0
 15 16  1  0
 16 23  2  0
 23 27  1  0
 23 38  1  0
 24 25  2  0
 24 39  1  0
 25 16  1  0
 25 40  1  0
 26 24  1  0
 26 27  1  0
 27 28  2  0
 28 29  1  0
 28 41  1  0
 29 30  2  0
 29 42  1  0
 30 31  1  0
 30 43  1  0
 31 26  2  0
M  END
> <Name>
CHEMBL2338477

> <Clean Energy>
49.611301

> <chembl_id>
CHEMBL2338477

> <chembl_pref_name>
None

> <efficacy>
0.1

> <Forcefield>
MMFF

> <ForcefieldBase>
MMFF

> <ForcefieldFFML>
<?xml version="1.0" encoding="UTF-8"?>
<!DOCTYPE ffml SYSTEM "Ffml.dtd">
<ffml version="1.0">
<forcefield name="MMFF" derivedFrom="MMFF" base="MMFF">
<atomTypes>
<atomType
name="C100"
element="C"
mass="12.011"
annotation=""/>
<atomType
name="S101"
element="S"
mass="32.066"
annotation=""/>
<atomType
name="N102"
element="N"
mass="14.007"
annotation=""/>
<atomType
name="O103"
element="O"
mass="16"
annotation=""/>
<atomType
name="Cl104"
element="Cl"
mass="35.453"
annotation=""/>
<atomType
name="H105"
element="H"
mass="1.008"
annotation=""/>
</atomTypes>
<parameters>
</parameters>
</forcefield>
</ffml>

> <Initial Potential Energy>
236.87674

> <Initial RMS Gradient>
44.92404

> <Minimization Criteria>
STEEPD> Minimization exiting with gradient tolerance ( 3.0000000) satisfied.

> <CHARMm Energy>
10.71986

> <Potential Energy>
10.71986

> <RMS Gradient>
0.02113

> <Bond Energy>
5.1916

> <Angle Energy>
17.14602

> <STRBend>
0.78263

> <Dihedral Energy>
5.14394

> <OOPLane>
0.0444

> <Van der Waals Energy>
64.25567

> <Electrostatic Energy>
-81.8444

> <Hydrogen Bond Energy>
0

> <Solvation Free Energy>
0

> <HasGasteigerCharges>
true

> <REMARK99>
REMARK  99  MacroMolecule created from Mol2 file
REMARK  99  CHEMBL2338477
REMARK  99  PROTEIN
REMARK  99  GASTEIGER
REMARK  99
REMARK  99

$$$$
CHEMBL2322444
  SciTegic05292516403D

 69 75  0  0  0  0            999 V2000
   21.0586  -21.6527    1.1712 C   0  0
   22.1358  -21.5677    2.0535 C   0  0
   23.3690  -21.1095    1.6028 C   0  0
   23.5248  -20.7353    0.2688 C   0  0
   22.4490  -20.8112   -0.6339 C   0  0
   21.1930  -21.2714   -0.1772 C   0  0
   17.6497  -21.3263   -0.2629 C   0  0
   18.8265  -20.6321   -0.6557 N   0  0
   18.9057  -19.2318   -0.6628 C   0  0
   17.8627  -18.4647   -0.3001 C   0  0
   16.5548  -20.4558    0.1008 C   0  0
   16.6587  -19.0916    0.0873 C   0  0
   15.5354  -18.4666    0.4933 N   0  0
   14.6868  -19.4486    0.7740 C   0  0
   15.2643  -20.6966    0.5275 N   0  0
   13.2866  -19.2283    1.2673 C   0  0
   13.1465  -17.9223    2.0379 C   0  0
   14.7004  -22.0253    0.7344 C   0  0  1  0  0  0
   13.3888  -23.3935    2.3178 C   0  0
   14.5697  -22.4162    2.2210 C   0  0
   12.5603  -23.0118    1.1286 C   0  0
   13.2986  -22.2411    0.2213 C   0  0
   12.7453  -21.8635   -0.9915 C   0  0
   11.4262  -22.2363   -1.2693 C   0  0
   10.6652  -23.0020   -0.3560 C   0  0
   11.2521  -23.3908    0.8596 C   0  0
    9.2778  -23.3756   -0.6782 C   0  0
    8.3021  -22.3532   -0.6090 C   0  0
    6.9580  -22.6002   -0.8823 C   0  0
    6.5536  -23.8791   -1.2297 C   0  0
    7.4973  -24.9035   -1.3012 C   0  0
    8.8653  -24.6835   -1.0346 C   0  0
    9.7434  -25.8573   -1.1576 C   0  0
   11.1058  -25.8575   -1.3073 N   0  0
   11.5687  -27.1101   -1.4148 N   0  0
   10.4962  -27.8809   -1.3416 N   0  0
    9.3603  -27.1268   -1.1911 N   0  0
   17.5809  -22.5518   -0.2246 O   0  0
   19.9904  -21.4106   -1.0918 C   0  0
   22.6800  -20.4045   -2.0640 C   0  0
   20.1058  -22.0268    1.5412 H   0  0
   22.0101  -21.8632    3.0917 H   0  0
   24.2130  -21.0481    2.2859 H   0  0
   24.5014  -20.3872   -0.0645 H   0  0
   19.8519  -18.7880   -0.9648 H   0  0
   17.9249  -17.3827   -0.2956 H   0  0
   12.6064  -19.2074    0.4088 H   0  0
   12.9659  -20.0378    1.9268 H   0  0
   12.1206  -17.8062    2.4018 H   0  0
   13.3785  -17.0587    1.4053 H   0  0
   13.8194  -17.8996    2.9020 H   0  0
   15.3233  -22.7598    0.2177 H   0  0
   13.7288  -24.4295    2.2181 H   0  0
   12.8459  -23.2689    3.2590 H   0  0
   14.3644  -21.5404    2.8495 H   0  0
   15.4950  -22.8574    2.6084 H   0  0
   13.3156  -21.2857   -1.7146 H   0  0
   10.9874  -21.9259   -2.2169 H   0  0
   10.6967  -23.9862    1.5813 H   0  0
    8.5901  -21.3414   -0.3256 H   0  0
    6.2284  -21.7969   -0.8178 H   0  0
    5.5093  -24.0838   -1.4437 H   0  0
    7.1590  -25.9008   -1.5768 H   0  0
   11.7591  -25.0858   -1.3501 H   0  0
   19.7421  -22.4761   -1.1617 H   0  0
   20.2120  -21.0917   -2.1156 H   0  0
   22.0223  -19.5725   -2.3345 H   0  0
   22.4996  -21.2516   -2.7334 H   0  0
   23.7107  -20.0718   -2.2275 H   0  0
  1  2  2  0
  1 41  1  0
  2  3  1  0
  2 42  1  0
  3  4  2  0
  3 43  1  0
  4  5  1  0
  4 44  1  0
  5  6  2  0
  5 40  1  0
  6  1  1  0
  7  8  1  0
  7 38  2  0
  8  9  1  0
  8 39  1  0
  9 10  2  0
  9 45  1  0
 10 12  1  0
 10 46  1  0
 11  7  1  0
 11 12  2  0
 12 13  1  0
 13 14  2  0
 14 15  1  0
 14 16  1  0
 15 11  1  0
 16 17  1  0
 16 47  1  0
 16 48  1  0
 17 49  1  0
 17 50  1  0
 17 51  1  0
 18 15  1  0
 18 22  1  0
 18 52  1  0
 19 20  1  0
 19 53  1  0
 19 54  1  0
 20 18  1  0
 20 55  1  0
 20 56  1  0
 21 19  1  0
 21 22  2  0
 22 23  1  0
 23 24  2  0
 23 57  1  0
 24 25  1  0
 24 58  1  0
 25 26  2  0
 25 27  1  0
 26 21  1  0
 26 59  1  0
 27 28  2  0
 28 29  1  0
 28 60  1  0
 29 30  2  0
 29 61  1  0
 30 31  1  0
 30 62  1  0
 31 32  2  0
 31 63  1  0
 32 27  1  0
 32 33  1  0
 33 34  1  0
 34 35  1  0
 34 64  1  0
 35 36  2  0
 36 37  1  0
 37 33  2  0
 39  6  1  0
 39 65  1  0
 39 66  1  0
 40 67  1  0
 40 68  1  0
 40 69  1  0
M  END
> <Name>
CHEMBL2322444

> <Clean Energy>
108.112

> <chembl_id>
CHEMBL2322444

> <chembl_pref_name>
None

> <efficacy>
0.217391304

> <Forcefield>
MMFF

> <ForcefieldBase>
MMFF

> <ForcefieldFFML>
<?xml version="1.0" encoding="UTF-8"?>
<!DOCTYPE ffml SYSTEM "Ffml.dtd">
<ffml version="1.0">
<forcefield name="MMFF" derivedFrom="MMFF" base="MMFF">
<atomTypes>
<atomType
name="C100"
element="C"
mass="12.011"
annotation=""/>
<atomType
name="N101"
element="N"
mass="14.007"
annotation=""/>
<atomType
name="O102"
element="O"
mass="16"
annotation=""/>
<atomType
name="H103"
element="H"
mass="1.008"
annotation=""/>
</atomTypes>
<parameters>
</parameters>
</forcefield>
</ffml>

> <Initial Potential Energy>
257.6858

> <Initial RMS Gradient>
35.70516

> <Minimization Criteria>
STEEPD> Minimization exiting with gradient tolerance ( 3.0000000) satisfied.

> <CHARMm Energy>
69.54844

> <Potential Energy>
69.54844

> <RMS Gradient>
0.01128

> <Bond Energy>
11.61393

> <Angle Energy>
20.4461

> <STRBend>
-0.56312

> <Dihedral Energy>
4.44546

> <OOPLane>
0.09804

> <Van der Waals Energy>
72.64197

> <Electrostatic Energy>
-39.13394

> <Hydrogen Bond Energy>
0

> <Solvation Free Energy>
0

> <HasGasteigerCharges>
true

> <REMARK99>
REMARK  99  MacroMolecule created from Mol2 file
REMARK  99  CHEMBL2322444
REMARK  99  PROTEIN
REMARK  99  GASTEIGER
REMARK  99
REMARK  99

$$$$
CHEMBL4580572
  SciTegic05292516403D

 56 58  0  0  0  0            999 V2000
   48.7094  -11.8070   -0.2093 C   0  0
   48.0753  -10.4122   -0.1152 C   0  0
   47.8073   -9.9247    1.3156 C   0  0
   36.2135  -10.6570    0.9985 C   0  0
   36.1454  -11.9186    0.4027 C   0  0
   37.3133  -12.6201    0.1272 C   0  0
   38.5527  -12.0687    0.4515 C   0  0
   38.6238  -10.8360    1.1046 C   0  0
   37.4513  -10.1305    1.3757 C   0  0
   35.0231   -9.9483    1.1891 N   0  0
   34.9205   -9.0687    0.3051 N   0  0
   33.5767   -8.6982    0.1537 C   0  0
   32.7766   -8.3042    1.2357 C   0  0
   31.4162   -8.0601    1.0542 C   0  0
   30.8615   -8.1951   -0.2251 C   0  0
   31.6561   -8.5317   -1.3262 C   0  0
   33.0131   -8.7789   -1.1277 C   0  0
   39.6218  -12.8295    0.0761 O   0  0
   40.8940  -12.1708    0.0864 C   0  0
   41.9069  -13.0303   -0.6666 C   0  0
   43.2556  -12.3587   -0.7243 C   0  0
   44.2366  -12.6427    0.2301 C   0  0
   45.4751  -11.9847    0.2061 C   0  0
   45.7538  -11.0319   -0.7683 C   0  0
   44.7694  -10.7482   -1.7209 C   0  0
   43.5325  -11.4001   -1.7032 C   0  0
   46.8933  -10.3044   -0.9266 O   0  0
   49.0982   -9.4235   -0.7582 C   0  0
   50.2756   -9.3073   -0.0807 O   0  0
   48.9294   -8.7888   -1.7909 O   0  0
   29.4245   -8.0180   -0.4071 N   0  3
   28.9966   -7.9107   -1.5649 O   0  0
   28.7192   -7.9875    0.6107 O   0  5
   48.1105  -12.5840    0.2676 H   0  0
   49.6981  -11.8454    0.2593 H   0  0
   48.8268  -12.1023   -1.2588 H   0  0
   47.4806   -8.8778    1.3051 H   0  0
   48.6960   -9.9902    1.9509 H   0  0
   47.0171  -10.4832    1.8196 H   0  0
   35.1804  -12.3363    0.1272 H   0  0
   37.2522  -13.5872   -0.3643 H   0  0
   39.5676  -10.3900    1.3983 H   0  0
   37.4890   -9.1587    1.8607 H   0  0
   33.2120   -8.2273    2.2296 H   0  0
   30.8042   -7.7898    1.9126 H   0  0
   31.2300   -8.6282   -2.3232 H   0  0
   33.6394   -9.0757   -1.9670 H   0  0
   40.8199  -11.1932   -0.4079 H   0  0
   41.2222  -12.0301    1.1238 H   0  0
   41.9887  -14.0163   -0.1918 H   0  0
   41.5466  -13.2339   -1.6833 H   0  0
   44.0492  -13.3804    1.0083 H   0  0
   46.1800  -12.2494    0.9820 H   0  0
   44.9698  -10.0035   -2.4893 H   0  0
   42.7891  -11.1473   -2.4566 H   0  0
   50.3399   -9.8587    0.7188 H   0  0
  1 34  1  0
  1 35  1  0
  1 36  1  0
  2  1  1  0
  2 28  1  0
  3  2  1  0
  3 37  1  0
  3 38  1  0
  3 39  1  0
  4  5  2  0
  4 10  1  0
  5  6  1  0
  5 40  1  0
  6  7  2  0
  6 41  1  0
  7  8  1  0
  7 18  1  0
  8  9  2  0
  8 42  1  0
  9  4  1  0
  9 43  1  0
 10 11  2  0
 11 12  1  0
 12 13  2  0
 13 14  1  0
 13 44  1  0
 14 15  2  0
 14 45  1  0
 15 16  1  0
 15 31  1  0
 16 17  2  0
 16 46  1  0
 17 12  1  0
 17 47  1  0
 18 19  1  0
 19 20  1  0
 19 48  1  0
 19 49  1  0
 20 21  1  0
 20 50  1  0
 20 51  1  0
 21 22  2  0
 22 23  1  0
 22 52  1  0
 23 24  2  0
 23 53  1  0
 24 25  1  0
 24 27  1  0
 25 26  2  0
 25 54  1  0
 26 21  1  0
 26 55  1  0
 27  2  1  0
 28 29  1  0
 28 30  2  0
 29 56  1  0
 31 32  2  0
 31 33  1  0
M  CHG  2  31   1  33  -1
M  END
> <Name>
CHEMBL4580572

> <Clean Energy>
20.151199

> <chembl_id>
CHEMBL4580572

> <chembl_pref_name>
None

> <efficacy>
0.14

> <Forcefield>
MMFF

> <ForcefieldBase>
MMFF

> <ForcefieldFFML>
<?xml version="1.0" encoding="UTF-8"?>
<!DOCTYPE ffml SYSTEM "Ffml.dtd">
<ffml version="1.0">
<forcefield name="MMFF" derivedFrom="MMFF" base="MMFF">
<atomTypes>
<atomType
name="C100"
element="C"
mass="12.011"
annotation=""/>
<atomType
name="N101"
element="N"
mass="14.007"
annotation=""/>
<atomType
name="O102"
element="O"
mass="16"
annotation=""/>
<atomType
name="H103"
element="H"
mass="1.008"
annotation=""/>
</atomTypes>
<parameters>
</parameters>
</forcefield>
</ffml>

> <Initial Potential Energy>
215.96698

> <Initial RMS Gradient>
34.08997

> <Minimization Criteria>
CONJUG> Minimization exiting with gradient tolerance ( 0.0100000) satisfied.

> <CHARMm Energy>
134.24506

> <Potential Energy>
134.24506

> <RMS Gradient>
0.00973

> <Bond Energy>
6.63151

> <Angle Energy>
25.69007

> <STRBend>
0.71876

> <Dihedral Energy>
8.09227

> <OOPLane>
0.05388

> <Van der Waals Energy>
71.28145

> <Electrostatic Energy>
21.77713

> <Hydrogen Bond Energy>
0

> <Solvation Free Energy>
0

> <HasGasteigerCharges>
true

> <REMARK99>
REMARK  99  MacroMolecule created from Mol2 file
REMARK  99  CHEMBL4580572
REMARK  99  PROTEIN
REMARK  99  GASTEIGER
REMARK  99
REMARK  99

$$$$
CHEMBL5195064
  SciTegic05292516403D

 54 55  0  0  0  0            999 V2000
   -6.4678    1.7322    1.1336 C   0  0
   -7.2903    0.8244    1.7978 C   0  0
   -7.1104   -0.5468    1.6168 C   0  0
   -6.0958   -1.0145    0.7801 C   0  0
   -5.2521   -0.1085    0.1283 C   0  0
   -5.4536    1.2689    0.2932 C   0  0
   -4.1961   -0.6425   -0.7746 C   0  0
   -2.9324    0.1055   -0.9913 C   0  0
   -2.3007    0.7902    0.0534 C   0  0
   -1.1643    1.5595   -0.2032 C   0  0
   -0.6400    1.6401   -1.5013 C   0  0
   -1.2447    0.9000   -2.5289 C   0  0
   -2.3837    0.1339   -2.2752 C   0  0
    0.5728    2.4870   -1.7852 C   0  0
    2.1057    1.5434   -1.5356 S   0  0
    2.8208    2.5035   -0.1462 C   0  0
    4.2214    1.9939    0.2492 C   0  0  1  0  0  0
    4.6977    2.8642    1.4315 C   0  0
    4.4995    4.0731    1.5079 O   0  0
    5.4697    2.2502    2.3536 O   0  0
    4.2050    0.5383    0.4532 N   0  0
    5.3053   -0.2341    0.6030 C   0  0
    4.9916   -1.5218    0.3716 O   0  0
    5.9951   -2.5648    0.4766 C   0  0
    5.2514   -3.8628    0.1294 C   0  0
    7.1207   -2.3543   -0.5420 C   0  0
    6.5330   -2.6732    1.9076 C   0  0
    6.3836    0.2250    0.9465 O   0  0
   -4.4051   -1.6955   -1.3748 O   0  0
   -6.6222    2.8007    1.2624 H   0  0
   -8.0850    1.1856    2.4457 H   0  0
   -7.7681   -1.2527    2.1183 H   0  0
   -5.9765   -2.0864    0.6291 H   0  0
   -4.8430    1.9952   -0.2374 H   0  0
   -2.6857    0.7388    1.0690 H   0  0
   -0.6931    2.0992    0.6157 H   0  0
   -0.8342    0.9197   -3.5369 H   0  0
   -2.8499   -0.4258   -3.0827 H   0  0
    0.5494    2.8328   -2.8249 H   0  0
    0.5554    3.3890   -1.1634 H   0  0
    2.8724    3.5566   -0.4436 H   0  0
    2.1366    2.4212    0.7062 H   0  0
    4.9341    2.1811   -0.5647 H   0  0
    5.8237    1.3851    2.0452 H   0  0
    3.3932    0.0322    0.1134 H   0  0
    5.9120   -4.7349    0.1742 H   0  0
    4.8192   -3.8070   -0.8766 H   0  0
    4.4133   -4.0275    0.8167 H   0  0
    7.7963   -3.2158   -0.5733 H   0  0
    7.7242   -1.4724   -0.3065 H   0  0
    6.7116   -2.1955   -1.5461 H   0  0
    7.1700   -3.5561    2.0281 H   0  0
    5.7103   -2.7357    2.6286 H   0  0
    7.1288   -1.7989    2.1870 H   0  0
  1  2  2  0
  1  6  1  0
  1 30  1  0
  2  3  1  0
  2 31  1  0
  3  4  2  0
  3 32  1  0
  4  5  1  0
  4 33  1  0
  5  6  2  0
  5  7  1  0
  6 34  1  0
  7  8  1  0
  7 29  2  0
  8  9  2  0
  8 13  1  0
  9 10  1  0
  9 35  1  0
 10 11  2  0
 10 36  1  0
 11 12  1  0
 11 14  1  0
 12 13  2  0
 12 37  1  0
 13 38  1  0
 14 15  1  0
 14 39  1  0
 14 40  1  0
 15 16  1  0
 16 17  1  0
 16 41  1  0
 16 42  1  0
 17 18  1  0
 17 21  1  0
 17 43  1  0
 18 19  2  0
 18 20  1  0
 20 44  1  0
 21 22  1  0
 21 45  1  0
 22 23  1  0
 22 28  2  0
 23 24  1  0
 24 25  1  0
 24 26  1  0
 24 27  1  0
 25 46  1  0
 25 47  1  0
 25 48  1  0
 26 49  1  0
 26 50  1  0
 26 51  1  0
 27 52  1  0
 27 53  1  0
 27 54  1  0
M  END
> <Name>
CHEMBL5195064

> <Clean Energy>
30.6311

> <chembl_id>
CHEMBL5195064

> <chembl_pref_name>
None

> <efficacy>
0.17

> <Forcefield>
MMFF

> <ForcefieldBase>
MMFF

> <ForcefieldFFML>
<?xml version="1.0" encoding="UTF-8"?>
<!DOCTYPE ffml SYSTEM "Ffml.dtd">
<ffml version="1.0">
<forcefield name="MMFF" derivedFrom="MMFF" base="MMFF">
<atomTypes>
<atomType
name="C100"
element="C"
mass="12.011"
annotation=""/>
<atomType
name="S101"
element="S"
mass="32.066"
annotation=""/>
<atomType
name="O102"
element="O"
mass="16"
annotation=""/>
<atomType
name="N103"
element="N"
mass="14.007"
annotation=""/>
<atomType
name="H104"
element="H"
mass="1.008"
annotation=""/>
</atomTypes>
<parameters>
</parameters>
</forcefield>
</ffml>

> <Initial Potential Energy>
148.84233

> <Initial RMS Gradient>
33.6099

> <Minimization Criteria>
CONJUG> Minimization exiting with gradient tolerance ( 0.0100000) satisfied.

> <CHARMm Energy>
31.19588

> <Potential Energy>
31.19588

> <RMS Gradient>
0.00977

> <Bond Energy>
6.23286

> <Angle Energy>
14.25068

> <STRBend>
1.13318

> <Dihedral Energy>
12.22128

> <OOPLane>
0.74692

> <Van der Waals Energy>
54.04181

> <Electrostatic Energy>
-57.43085

> <Hydrogen Bond Energy>
0

> <Solvation Free Energy>
0

> <HasGasteigerCharges>
true

> <REMARK99>
REMARK  99  MacroMolecule created from Mol2 file
REMARK  99  CHEMBL5195064
REMARK  99  PROTEIN
REMARK  99  GASTEIGER
REMARK  99
REMARK  99

$$$$
CHEMBL5198233
  SciTegic05292516403D

 76 76  0  0  0  0            999 V2000
   -7.3161    2.5814    1.8665 C   0  0
   -7.4256    2.5432    0.3331 C   0  0
   -8.0598    3.8814   -0.1008 C   0  0
   -8.9650   -0.5319   -0.8925 C   0  0
   -8.7421   -1.8914   -1.1135 C   0  0
   -7.5886   -2.4969   -0.6199 C   0  0
   -6.6577   -1.7473    0.1066 C   0  0
   -6.9005   -0.3796    0.3278 C   0  0
   -8.0411    0.2385   -0.1829 C   0  0
   -8.3855    1.5532   -0.0566 O   0  0
   -5.4030   -2.3916    0.6463 C   0  0
   -4.1447   -1.8876   -0.0668 C   0  0
   -2.8829   -2.5383    0.5018 C   0  0
   -1.6249   -1.9838   -0.1690 C   0  0
   -0.3601   -2.6272    0.4012 C   0  0
    0.8985   -2.0474   -0.2463 C   0  0
    2.1637   -2.6919    0.3225 C   0  0
    3.4237   -2.0952   -0.3067 C   0  0
    4.6881   -2.7434    0.2599 C   0  0
    5.9495   -2.1357   -0.3559 C   0  0
    7.2130   -2.7882    0.2076 C   0  0
    8.4752   -2.1745   -0.4004 C   0  0
    9.7381   -2.8304    0.1603 C   0  0
   10.9999   -2.2148   -0.4438 C   0  0
   12.2572   -2.8663    0.1099 C   0  0
   -6.0706    2.4936   -0.4202 C   0  0
   -5.0129    2.6022    0.4359 O   0  0
   -5.9561    2.3829   -1.6361 O   0  0
   -3.7300    2.5237   -0.1985 C   0  0
   -2.6712    2.4564    0.8845 C   0  0
   -8.3107    2.6234    2.3258 H   0  0
   -6.7421    3.4494    2.2097 H   0  0
   -6.8290    1.6913    2.2728 H   0  0
   -8.2393    3.8965   -1.1828 H   0  0
   -7.4184    4.7347    0.1464 H   0  0
   -9.0364    4.0281    0.3753 H   0  0
   -9.8631   -0.0648   -1.2893 H   0  0
   -9.4659   -2.4744   -1.6765 H   0  0
   -7.4226   -3.5553   -0.8061 H   0  0
   -6.1691    0.1684    0.9084 H   0  0
   -5.3392   -2.1847    1.7221 H   0  0
   -5.4699   -3.4823    0.5478 H   0  0
   -4.2173   -2.0987   -1.1412 H   0  0
   -4.0643   -0.7986    0.0353 H   0  0
   -2.8310   -2.3566    1.5822 H   0  0
   -2.9317   -3.6243    0.3573 H   0  0
   -1.6739   -2.1637   -1.2498 H   0  0
   -1.5813   -0.8974   -0.0239 H   0  0
   -0.3221   -2.4653    1.4853 H   0  0
   -0.3935   -3.7112    0.2370 H   0  0
    0.8611   -2.2059   -1.3309 H   0  0
    0.9309   -0.9639   -0.0786 H   0  0
    2.1931   -2.5472    1.4093 H   0  0
    2.1382   -3.7733    0.1408 H   0  0
    3.3943   -2.2359   -1.3940 H   0  0
    3.4499   -1.0146   -0.1210 H   0  0
    4.7118   -2.6125    1.3486 H   0  0
    4.6664   -3.8224    0.0643 H   0  0
    5.9250   -2.2628   -1.4451 H   0  0
    5.9725   -1.0575   -0.1564 H   0  0
    7.2344   -2.6670    1.2975 H   0  0
    7.1925   -3.8655    0.0025 H   0  0
    8.4529   -2.2927   -1.4906 H   0  0
    8.4969   -1.0978   -0.1922 H   0  0
    9.7591   -2.7149    1.2509 H   0  0
    9.7174   -3.9067   -0.0501 H   0  0
   10.9856   -2.3298   -1.5339 H   0  0
   11.0286   -1.1398   -0.2312 H   0  0
   13.1476   -2.4108   -0.3347 H   0  0
   12.2754   -3.9375   -0.1148 H   0  0
   12.3181   -2.7416    1.1957 H   0  0
   -3.6700    1.6256   -0.8236 H   0  0
   -3.5765    3.4150   -0.8164 H   0  0
   -1.6699    2.4001    0.4483 H   0  0
   -2.8285    1.5796    1.5217 H   0  0
   -2.7263    3.3365    1.5336 H   0  0
  1 31  1  0
  1 32  1  0
  1 33  1  0
  2  1  1  0
  2 26  1  0
  3  2  1  0
  3 34  1  0
  3 35  1  0
  3 36  1  0
  4  5  2  0
  4 37  1  0
  5  6  1  0
  5 38  1  0
  6  7  2  0
  6 39  1  0
  7  8  1  0
  7 11  1  0
  8  9  2  0
  8 40  1  0
  9  4  1  0
  9 10  1  0
 10  2  1  0
 11 12  1  0
 11 41  1  0
 11 42  1  0
 12 13  1  0
 12 43  1  0
 12 44  1  0
 13 14  1  0
 13 45  1  0
 13 46  1  0
 14 15  1  0
 14 47  1  0
 14 48  1  0
 15 16  1  0
 15 49  1  0
 15 50  1  0
 16 17  1  0
 16 51  1  0
 16 52  1  0
 17 18  1  0
 17 53  1  0
 17 54  1  0
 18 19  1  0
 18 55  1  0
 18 56  1  0
 19 20  1  0
 19 57  1  0
 19 58  1  0
 20 21  1  0
 20 59  1  0
 20 60  1  0
 21 22  1  0
 21 61  1  0
 21 62  1  0
 22 23  1  0
 22 63  1  0
 22 64  1  0
 23 24  1  0
 23 65  1  0
 23 66  1  0
 24 25  1  0
 24 67  1  0
 24 68  1  0
 25 69  1  0
 25 70  1  0
 25 71  1  0
 26 27  1  0
 26 28  2  0
 27 29  1  0
 29 30  1  0
 29 72  1  0
 29 73  1  0
 30 74  1  0
 30 75  1  0
 30 76  1  0
M  END
> <Name>
CHEMBL5198233

> <Clean Energy>
17.814199

> <chembl_id>
CHEMBL5198233

> <chembl_pref_name>
None

> <efficacy>
0.3

> <Forcefield>
MMFF

> <ForcefieldBase>
MMFF

> <ForcefieldFFML>
<?xml version="1.0" encoding="UTF-8"?>
<!DOCTYPE ffml SYSTEM "Ffml.dtd">
<ffml version="1.0">
<forcefield name="MMFF" derivedFrom="MMFF" base="MMFF">
<atomTypes>
<atomType
name="C100"
element="C"
mass="12.011"
annotation=""/>
<atomType
name="O101"
element="O"
mass="16"
annotation=""/>
<atomType
name="H102"
element="H"
mass="1.008"
annotation=""/>
</atomTypes>
<parameters>
</parameters>
</forcefield>
</ffml>

> <Initial Potential Energy>
75.71256

> <Initial RMS Gradient>
15.29192

> <Minimization Criteria>
CONJUG> Minimization exiting with gradient tolerance ( 0.0100000) satisfied.

> <CHARMm Energy>
49.26453

> <Potential Energy>
49.26453

> <RMS Gradient>
0.00995

> <Bond Energy>
5.34656

> <Angle Energy>
16.00789

> <STRBend>
-0.06466

> <Dihedral Energy>
-23.24314

> <OOPLane>
0.00486

> <Van der Waals Energy>
45.60624

> <Electrostatic Energy>
5.60678

> <Hydrogen Bond Energy>
0

> <Solvation Free Energy>
0

> <HasGasteigerCharges>
true

> <REMARK99>
REMARK  99  MacroMolecule created from Mol2 file
REMARK  99  CHEMBL5198233
REMARK  99  PROTEIN
REMARK  99  GASTEIGER
REMARK  99
REMARK  99

$$$$
CHEMBL5187974
  SciTegic05292516403D

 70 70  0  0  0  0            999 V2000
   -7.0775    2.4860    1.5279 C   0  0
   -7.3920    2.6398    0.0289 C   0  0
   -8.1546    3.9654   -0.1651 C   0  0
   -9.2904   -0.4483   -0.1342 C   0  0
   -9.2274   -1.8244    0.0702 C   0  0
   -7.9887   -2.4488    0.1978 C   0  0
   -6.7989   -1.7088    0.1113 C   0  0
   -6.8847   -0.3208   -0.0929 C   0  0
   -8.1232    0.3150   -0.1992 C   0  0
   -8.3353    1.6482   -0.4003 O   0  0
   -5.4888   -2.4594    0.2336 C   0  0
   -4.2005   -1.6396    0.0963 C   0  0
   -2.9601   -2.5263    0.2356 C   0  0
   -1.6755   -1.7093    0.0872 C   0  0
   -0.4335   -2.5919    0.2223 C   0  0
    0.8482   -1.7725    0.0634 C   0  0
    2.0931   -2.6517    0.1928 C   0  0
    3.3719   -1.8291    0.0265 C   0  0
    4.6199   -2.7046    0.1517 C   0  0
    5.8957   -1.8780   -0.0174 C   0  0
    7.1463   -2.7503    0.1037 C   0  0
    8.4201   -1.9202   -0.0645 C   0  0
    9.6725   -2.7901    0.0544 C   0  0
   10.9440   -1.9582   -0.1120 C   0  0
   12.1922   -2.8180    0.0060 C   0  0
   -6.1189    2.7542   -0.8494 C   0  0
   -5.1688    3.5971   -0.3706 O   0  0
   -5.9480    2.1719   -1.9118 O   0  0
   -7.9763    2.2137    2.0929 H   0  0
   -6.6761    3.4075    1.9629 H   0  0
   -6.3309    1.7056    1.7061 H   0  0
   -8.4208    4.1080   -1.2196 H   0  0
   -7.5677    4.8340    0.1517 H   0  0
   -9.0959    3.9612    0.3972 H   0  0
  -10.2581    0.0355   -0.2397 H   0  0
  -10.1416   -2.4090    0.1239 H   0  0
   -7.9525   -3.5255    0.3520 H   0  0
   -5.9707    0.2492   -0.1953 H   0  0
   -5.4813   -2.9578    1.2117 H   0  0
   -5.4820   -3.2454   -0.5330 H   0  0
   -4.1788   -1.1403   -0.8804 H   0  0
   -4.1718   -0.8571    0.8647 H   0  0
   -2.9701   -3.0217    1.2140 H   0  0
   -2.9839   -3.3143   -0.5269 H   0  0
   -1.6678   -1.2126   -0.8907 H   0  0
   -1.6508   -0.9215    0.8499 H   0  0
   -0.4366   -3.0838    1.2026 H   0  0
   -0.4604   -3.3830   -0.5370 H   0  0
    0.8485   -1.2783   -0.9158 H   0  0
    0.8758   -0.9827    0.8240 H   0  0
    2.0964   -3.1426    1.1736 H   0  0
    2.0643   -3.4437   -0.5654 H   0  0
    3.3664   -1.3365   -0.9535 H   0  0
    3.4007   -1.0381    0.7858 H   0  0
    4.6274   -3.1961    1.1322 H   0  0
    4.5914   -3.4962   -0.6070 H   0  0
    5.8862   -1.3844   -0.9968 H   0  0
    5.9244   -1.0877    0.7426 H   0  0
    7.1564   -3.2447    1.0827 H   0  0
    7.1188   -3.5397   -0.6573 H   0  0
    8.4090   -1.4248   -1.0430 H   0  0
    8.4473   -1.1313    0.6969 H   0  0
    9.6836   -3.2869    1.0322 H   0  0
    9.6464   -3.5781   -0.7081 H   0  0
   10.9398   -1.4629   -1.0900 H   0  0
   10.9764   -1.1711    0.6503 H   0  0
   13.0892   -2.2027   -0.1158 H   0  0
   12.2069   -3.5962   -0.7638 H   0  0
   12.2435   -3.3028    0.9861 H   0  0
   -5.3903    4.0677    0.4528 H   0  0
  1 29  1  0
  1 30  1  0
  1 31  1  0
  2  1  1  0
  2 26  1  0
  3  2  1  0
  3 32  1  0
  3 33  1  0
  3 34  1  0
  4  5  2  0
  4 35  1  0
  5  6  1  0
  5 36  1  0
  6  7  2  0
  6 37  1  0
  7  8  1  0
  7 11  1  0
  8  9  2  0
  8 38  1  0
  9  4  1  0
  9 10  1  0
 10  2  1  0
 11 12  1  0
 11 39  1  0
 11 40  1  0
 12 13  1  0
 12 41  1  0
 12 42  1  0
 13 14  1  0
 13 43  1  0
 13 44  1  0
 14 15  1  0
 14 45  1  0
 14 46  1  0
 15 16  1  0
 15 47  1  0
 15 48  1  0
 16 17  1  0
 16 49  1  0
 16 50  1  0
 17 18  1  0
 17 51  1  0
 17 52  1  0
 18 19  1  0
 18 53  1  0
 18 54  1  0
 19 20  1  0
 19 55  1  0
 19 56  1  0
 20 21  1  0
 20 57  1  0
 20 58  1  0
 21 22  1  0
 21 59  1  0
 21 60  1  0
 22 23  1  0
 22 61  1  0
 22 62  1  0
 23 24  1  0
 23 63  1  0
 23 64  1  0
 24 25  1  0
 24 65  1  0
 24 66  1  0
 25 67  1  0
 25 68  1  0
 25 69  1  0
 26 27  1  0
 26 28  2  0
 27 70  1  0
M  END
> <Name>
CHEMBL5187974

> <Clean Energy>
18.725599

> <chembl_id>
CHEMBL5187974

> <chembl_pref_name>
None

> <efficacy>
0.3

> <Forcefield>
MMFF

> <ForcefieldBase>
MMFF

> <ForcefieldFFML>
<?xml version="1.0" encoding="UTF-8"?>
<!DOCTYPE ffml SYSTEM "Ffml.dtd">
<ffml version="1.0">
<forcefield name="MMFF" derivedFrom="MMFF" base="MMFF">
<atomTypes>
<atomType
name="C100"
element="C"
mass="12.011"
annotation=""/>
<atomType
name="O101"
element="O"
mass="16"
annotation=""/>
<atomType
name="H102"
element="H"
mass="1.008"
annotation=""/>
</atomTypes>
<parameters>
</parameters>
</forcefield>
</ffml>

> <Initial Potential Energy>
80.46701

> <Initial RMS Gradient>
16.95201

> <Minimization Criteria>
CONJUG> Minimization exiting with gradient tolerance ( 0.0100000) satisfied.

> <CHARMm Energy>
47.36367

> <Potential Energy>
47.36367

> <RMS Gradient>
0.00911

> <Bond Energy>
5.41051

> <Angle Energy>
17.24567

> <STRBend>
0.21788

> <Dihedral Energy>
-24.16812

> <OOPLane>
0.02408

> <Van der Waals Energy>
43.77514

> <Electrostatic Energy>
4.85851

> <Hydrogen Bond Energy>
0

> <Solvation Free Energy>
0

> <HasGasteigerCharges>
true

> <REMARK99>
REMARK  99  MacroMolecule created from Mol2 file
REMARK  99  CHEMBL5187974
REMARK  99  PROTEIN
REMARK  99  GASTEIGER
REMARK  99
REMARK  99

$$$$
CHEMBL5087833
  SciTegic05292516403D

 56 59  0  0  0  0            999 V2000
   24.4722  -22.2998    2.7710 F   0  0
   24.5860  -22.1343    1.4236 C   0  0
   25.1727  -23.2754    0.9508 F   0  0
   28.5011  -15.9150   -1.4841 F   0  0
   28.3624  -16.5653   -0.2948 C   0  0
   29.3107  -16.0426    0.5346 F   0  0
   27.4713  -18.9038    0.0118 C   0  0
   27.5402  -20.2924   -0.1131 C   0  0
   28.6586  -20.8612   -0.7217 C   0  0
   29.7097  -20.0569   -1.1555 C   0  0
   29.6764  -18.6598   -0.9854 C   0  0
   28.5177  -18.0683   -0.4347 C   0  0
   27.1597  -16.1643    0.2049 F   0  0
   30.8894  -17.8607   -1.4191 C   0  0
   32.0945  -18.4431   -0.8547 N   0  0
   33.1539  -18.8226   -1.6457 C   0  0
   34.3106  -19.5095   -0.9902 C   0  0
   33.1800  -18.6355   -2.8593 O   0  0
   35.1962  -20.1981   -1.8271 C   0  0
   36.3076  -20.8795   -1.3216 C   0  0
   34.5524  -19.4762    0.3934 C   0  0
   35.6821  -20.1469    0.9242 C   0  0
   36.5299  -20.8493    0.0613 C   0  0
   37.5115  -21.4351    0.8409 N   0  0
   37.3529  -21.0595    2.1534 C   0  0
   36.2207  -20.2802    2.2355 C   0  0
   38.5751  -22.3167    0.3643 C   0  0
   38.0860  -23.7404    0.2409 C   0  0
   37.9434  -24.5505    1.3797 C   0  0
   37.4462  -25.8520    1.2715 C   0  0
   37.0857  -26.3597    0.0256 C   0  0
   37.2229  -25.5609   -1.1016 C   0  0
   37.7231  -24.2663   -1.0076 C   0  0
   36.8658  -26.0425   -2.2993 F   0  0
   26.5538  -21.1796    0.3510 N   0  0
   25.3823  -20.8753    1.0403 C   0  0
   24.9953  -19.7433    1.3299 O   0  0
   23.3215  -22.1273    0.9228 F   0  0
   26.6029  -18.4309    0.4634 H   0  0
   28.7384  -21.9366   -0.8604 H   0  0
   30.5739  -20.5298   -1.6224 H   0  0
   30.9299  -17.8311   -2.5129 H   0  0
   30.8577  -16.8317   -1.0548 H   0  0
   32.0982  -18.6222    0.1376 H   0  0
   35.0340  -20.2078   -2.9052 H   0  0
   36.9682  -21.4040   -2.0008 H   0  0
   33.9087  -18.9299    1.0727 H   0  0
   38.0466  -21.3896    2.9184 H   0  0
   35.8273  -19.8432    3.1440 H   0  0
   38.9368  -21.9250   -0.5929 H   0  0
   39.4113  -22.2576    1.0711 H   0  0
   38.2147  -24.1712    2.3636 H   0  0
   37.3469  -26.4708    2.1598 H   0  0
   36.7105  -27.3736   -0.0738 H   0  0
   37.8087  -23.6768   -1.9151 H   0  0
   26.7373  -22.1701    0.2004 H   0  0
  2  1  1  0
  2 38  1  0
  3  2  1  0
  5  4  1  0
  5 13  1  0
  6  5  1  0
  7  8  2  0
  7 39  1  0
  8  9  1  0
  8 35  1  0
  9 10  2  0
  9 40  1  0
 10 11  1  0
 10 41  1  0
 11 12  2  0
 11 14  1  0
 12  5  1  0
 12  7  1  0
 14 15  1  0
 14 42  1  0
 14 43  1  0
 15 16  1  0
 15 44  1  0
 16 17  1  0
 16 18  2  0
 17 19  2  0
 19 20  1  0
 19 45  1  0
 20 23  2  0
 20 46  1  0
 21 17  1  0
 21 47  1  0
 22 21  2  0
 22 23  1  0
 23 24  1  0
 24 25  1  0
 24 27  1  0
 25 26  2  0
 25 48  1  0
 26 22  1  0
 26 49  1  0
 27 28  1  0
 27 50  1  0
 27 51  1  0
 28 29  2  0
 29 30  1  0
 29 52  1  0
 30 31  2  0
 30 53  1  0
 31 32  1  0
 31 54  1  0
 32 33  2  0
 32 34  1  0
 33 28  1  0
 33 55  1  0
 35 36  1  0
 35 56  1  0
 36  2  1  0
 36 37  2  0
M  END
> <Name>
CHEMBL5087833

> <Clean Energy>
62.166901

> <chembl_id>
CHEMBL5087833

> <chembl_pref_name>
None

> <efficacy>
0.227920228

> <Forcefield>
MMFF

> <ForcefieldBase>
MMFF

> <ForcefieldFFML>
<?xml version="1.0" encoding="UTF-8"?>
<!DOCTYPE ffml SYSTEM "Ffml.dtd">
<ffml version="1.0">
<forcefield name="MMFF" derivedFrom="MMFF" base="MMFF">
<atomTypes>
<atomType
name="F100"
element="F"
mass="18.998"
annotation=""/>
<atomType
name="C101"
element="C"
mass="12.011"
annotation=""/>
<atomType
name="N102"
element="N"
mass="14.007"
annotation=""/>
<atomType
name="O103"
element="O"
mass="16"
annotation=""/>
<atomType
name="H104"
element="H"
mass="1.008"
annotation=""/>
</atomTypes>
<parameters>
</parameters>
</forcefield>
</ffml>

> <Initial Potential Energy>
529.02705

> <Initial RMS Gradient>
209.81356

> <Minimization Criteria>
CONJUG> Minimization exiting with gradient tolerance ( 0.0100000) satisfied.

> <CHARMm Energy>
126.38575

> <Potential Energy>
126.38575

> <RMS Gradient>
0.00997

> <Bond Energy>
8.06069

> <Angle Energy>
9.97658

> <STRBend>
0.52945

> <Dihedral Energy>
3.42135

> <OOPLane>
0.04129

> <Van der Waals Energy>
61.76741

> <Electrostatic Energy>
42.58898

> <Hydrogen Bond Energy>
0

> <Solvation Free Energy>
0

> <HasGasteigerCharges>
true

> <REMARK99>
REMARK  99  MacroMolecule created from Mol2 file
REMARK  99  CHEMBL5087833
REMARK  99  PROTEIN
REMARK  99  GASTEIGER
REMARK  99
REMARK  99

$$$$
CHEMBL2260191
  SciTegic05292516403D

 60 65  0  0  0  0            999 V2000
   18.0124   -8.7275    1.8959 C   0  0
   17.6247   -9.5387    0.8233 C   0  0
   18.5711  -10.2897    0.1042 C   0  0
   19.3578   -8.6115    2.2581 C   0  0
   20.3169   -9.3126    1.5172 C   0  0
   19.9148  -10.1330    0.4653 C   0  0
   21.0916  -10.6683   -0.0049 N   0  0
   22.1182  -10.1344    0.7239 C   0  0
   21.6765   -9.3380    1.6678 N   0  0
   21.2553  -11.6004   -1.1100 C   0  0
   20.6822  -12.9610   -0.8358 C   0  0
   20.7789  -13.5638    0.4241 C   0  0
   20.2787  -14.8466    0.6297 C   0  0
   19.6990  -15.5701   -0.4218 C   0  0
   19.6118  -14.9609   -1.6827 C   0  0
   20.0975  -13.6723   -1.8902 C   0  0
   19.2486  -16.9513   -0.2270 C   0  0
   17.9989  -17.3840   -0.6967 C   0  0
   17.6163  -18.7211   -0.5777 C   0  0
   18.4765  -19.6425    0.0272 C   0  0
   19.7086  -19.2183    0.5324 C   0  0
   20.0884  -17.8842    0.4019 C   0  0
   16.2163   -9.6201    0.4606 C   0  0
   15.5614   -8.7029   -0.3347 N   0  0
   15.3966  -10.5802    0.8355 N   0  0
   14.1818  -10.2716    0.2851 C   0  0
   14.2494   -9.0943   -0.4546 C   0  0
   13.1391   -8.5599   -1.1182 C   0  0
   11.9354   -9.2653   -1.0090 C   0  0
   11.8482  -10.4497   -0.2765 C   0  0
   12.9700  -10.9700    0.3761 C   0  0
   18.0665  -21.0642    0.0656 C   0  0
   17.1668  -21.5312   -0.6141 O   0  0
   18.8396  -21.7558    0.9407 O   0  0
   18.5054  -23.1426    1.0373 C   0  0
   16.1667   -7.5422   -0.9420 C   0  0
   17.2606   -8.1915    2.4710 H   0  0
   18.2648  -10.9775   -0.6799 H   0  0
   19.6642   -7.9992    3.0970 H   0  0
   23.1597  -10.3593    0.5356 H   0  0
   20.7688  -11.1306   -1.9736 H   0  0
   22.3252  -11.6883   -1.3309 H   0  0
   21.2440  -13.0468    1.2625 H   0  0
   20.3576  -15.2845    1.6235 H   0  0
   19.1893  -15.5046   -2.5256 H   0  0
   20.0280  -13.2355   -2.8852 H   0  0
   17.3140  -16.6829   -1.1695 H   0  0
   16.6496  -19.0347   -0.9649 H   0  0
   20.3977  -19.9090    1.0092 H   0  0
   21.0666  -17.5843    0.7718 H   0  0
   13.1914   -7.6414   -1.6926 H   0  0
   11.0501   -8.8810   -1.5072 H   0  0
   10.9010  -10.9772   -0.2066 H   0  0
   12.9127  -11.8923    0.9448 H   0  0
   19.1883  -23.6051    1.7553 H   0  0
   18.6324  -23.6380    0.0692 H   0  0
   17.4810  -23.2645    1.4031 H   0  0
   15.4877   -7.1040   -1.6760 H   0  0
   17.0863   -7.8462   -1.4486 H   0  0
   16.3812   -6.8144   -0.1556 H   0  0
  1  2  2  0
  1 37  1  0
  2  3  1  0
  2 23  1  0
  3  6  2  0
  3 38  1  0
  4  1  1  0
  4 39  1  0
  5  4  2  0
  5  6  1  0
  6  7  1  0
  7  8  1  0
  7 10  1  0
  8  9  2  0
  8 40  1  0
  9  5  1  0
 10 11  1  0
 10 41  1  0
 10 42  1  0
 11 12  2  0
 12 13  1  0
 12 43  1  0
 13 14  2  0
 13 44  1  0
 14 15  1  0
 14 17  1  0
 15 16  2  0
 15 45  1  0
 16 11  1  0
 16 46  1  0
 17 18  2  0
 18 19  1  0
 18 47  1  0
 19 20  2  0
 19 48  1  0
 20 21  1  0
 20 32  1  0
 21 22  2  0
 21 49  1  0
 22 17  1  0
 22 50  1  0
 23 24  1  0
 24 27  1  0
 24 36  1  0
 25 23  2  0
 26 25  1  0
 26 27  2  0
 27 28  1  0
 28 29  2  0
 28 51  1  0
 29 30  1  0
 29 52  1  0
 30 31  2  0
 30 53  1  0
 31 26  1  0
 31 54  1  0
 32 33  2  0
 32 34  1  0
 34 35  1  0
 35 55  1  0
 35 56  1  0
 35 57  1  0
 36 58  1  0
 36 59  1  0
 36 60  1  0
M  END
> <Name>
CHEMBL2260191

> <Clean Energy>
69.2295

> <chembl_id>
CHEMBL2260191

> <chembl_pref_name>
None

> <efficacy>
0.036

> <Forcefield>
MMFF

> <ForcefieldBase>
MMFF

> <ForcefieldFFML>
<?xml version="1.0" encoding="UTF-8"?>
<!DOCTYPE ffml SYSTEM "Ffml.dtd">
<ffml version="1.0">
<forcefield name="MMFF" derivedFrom="MMFF" base="MMFF">
<atomTypes>
<atomType
name="C100"
element="C"
mass="12.011"
annotation=""/>
<atomType
name="N101"
element="N"
mass="14.007"
annotation=""/>
<atomType
name="O102"
element="O"
mass="16"
annotation=""/>
<atomType
name="H103"
element="H"
mass="1.008"
annotation=""/>
</atomTypes>
<parameters>
</parameters>
</forcefield>
</ffml>

> <Initial Potential Energy>
706.05248

> <Initial RMS Gradient>
332.20275

> <Minimization Criteria>
STEEPD> Minimization exiting with gradient tolerance ( 3.0000000) satisfied.

> <CHARMm Energy>
99.73696

> <Potential Energy>
99.73696

> <RMS Gradient>
0.14416

> <Bond Energy>
6.7328

> <Angle Energy>
8.77553

> <STRBend>
-0.94929

> <Dihedral Energy>
12.72787

> <OOPLane>
0.07097

> <Van der Waals Energy>
73.07458

> <Electrostatic Energy>
-0.6955

> <Hydrogen Bond Energy>
0

> <Solvation Free Energy>
0

> <HasGasteigerCharges>
true

> <REMARK99>
REMARK  99  MacroMolecule created from Mol2 file
REMARK  99  CHEMBL2260191
REMARK  99  PROTEIN
REMARK  99  GASTEIGER
REMARK  99
REMARK  99

$$$$
CHEMBL2331781
  SciTegic05292516403D

 42 44  0  0  0  0            999 V2000
   35.8866  -21.9711   -0.9940 C   0  0
   34.8755  -21.2758   -0.1803 C   0  0
   34.0332  -21.9903    0.6697 C   0  0
   33.0892  -21.3059    1.4373 C   0  0
   32.9304  -19.9268    1.2819 C   0  0
   33.7170  -19.2202    0.3688 C   0  0
   34.7136  -19.8958   -0.3415 C   0  0
   35.5210  -22.7679   -1.8512 O   0  0
   32.3293  -16.8501    0.6631 S   0  0
   33.5233  -17.8500    0.0462 N   0  0
   30.7972  -17.4697    0.0182 C   0  0
   29.5834  -17.0937    0.6039 C   0  0
   28.3850  -17.6402    0.1278 C   0  0
   28.4001  -18.5429   -0.9327 C   0  0
   29.6011  -18.8951   -1.5416 C   0  0
   30.7999  -18.3526   -1.0739 C   0  0
   34.1435  -23.3584    0.7713 O   0  0
   32.4061  -23.8593   -0.8563 C   0  0
   33.0188  -24.0477    0.3808 C   0  0
   32.4758  -24.9769    1.2615 C   0  0
   31.3100  -25.6386    0.8960 C   0  0
   30.7378  -25.3525   -0.3368 C   0  0
   31.2622  -24.4789   -1.2290 N   0  0
   30.5886  -26.7778    1.9580 Cl  0  0
   32.3372  -17.0076    2.1000 O   0  0
   32.5500  -15.5695    0.0271 O   0  0
   26.9254  -19.2178   -1.5015 Cl  0  0
   29.4465  -15.9347    1.8766 Cl  0  0
   37.3292  -21.6240   -0.7531 C   0  0
   32.4568  -21.8408    2.1422 H   0  0
   32.1684  -19.4423    1.8847 H   0  0
   35.3371  -19.3646   -1.0556 H   0  0
   34.1804  -17.3652   -0.5623 H   0  0
   27.4376  -17.3578    0.5822 H   0  0
   29.6110  -19.5914   -2.3782 H   0  0
   31.7212  -18.6338   -1.5768 H   0  0
   32.8215  -23.1840   -1.5988 H   0  0
   32.9448  -25.1628    2.2220 H   0  0
   29.8139  -25.8235   -0.6547 H   0  0
   37.9072  -22.5477   -0.6609 H   0  0
   37.4490  -21.0567    0.1743 H   0  0
   37.7041  -21.0274   -1.5886 H   0  0
  1  2  1  0
  1  8  2  0
  1 29  1  0
  2  3  1  0
  2  7  2  0
  3  4  2  0
  3 17  1  0
  4  5  1  0
  4 30  1  0
  5  6  2  0
  5 31  1  0
  6  7  1  0
  6 10  1  0
  7 32  1  0
  9 10  1  0
  9 11  1  0
  9 25  2  0
  9 26  2  0
 10 33  1  0
 11 12  1  0
 11 16  2  0
 12 13  2  0
 12 28  1  0
 13 14  1  0
 13 34  1  0
 14 15  2  0
 14 27  1  0
 15 16  1  0
 15 35  1  0
 16 36  1  0
 17 19  1  0
 18 19  1  0
 18 23  2  0
 18 37  1  0
 19 20  2  0
 20 21  1  0
 20 38  1  0
 21 22  2  0
 21 24  1  0
 22 23  1  0
 22 39  1  0
 29 40  1  0
 29 41  1  0
 29 42  1  0
M  END
> <Name>
CHEMBL2331781

> <Clean Energy>
31.8225

> <chembl_id>
CHEMBL2331781

> <chembl_pref_name>
None

> <efficacy>
0.18

> <Forcefield>
MMFF

> <ForcefieldBase>
MMFF

> <ForcefieldFFML>
<?xml version="1.0" encoding="UTF-8"?>
<!DOCTYPE ffml SYSTEM "Ffml.dtd">
<ffml version="1.0">
<forcefield name="MMFF" derivedFrom="MMFF" base="MMFF">
<atomTypes>
<atomType
name="C100"
element="C"
mass="12.011"
annotation=""/>
<atomType
name="O101"
element="O"
mass="16"
annotation=""/>
<atomType
name="S102"
element="S"
mass="32.066"
annotation=""/>
<atomType
name="N103"
element="N"
mass="14.007"
annotation=""/>
<atomType
name="Cl104"
element="Cl"
mass="35.453"
annotation=""/>
<atomType
name="H105"
element="H"
mass="1.008"
annotation=""/>
</atomTypes>
<parameters>
</parameters>
</forcefield>
</ffml>

> <Initial Potential Energy>
605.69407

> <Initial RMS Gradient>
277.43673

> <Minimization Criteria>
STEEPD> Minimization exiting with gradient tolerance ( 3.0000000) satisfied.

> <CHARMm Energy>
29.72923

> <Potential Energy>
29.72923

> <RMS Gradient>
0.1382

> <Bond Energy>
3.84096

> <Angle Energy>
15.49106

> <STRBend>
0.52167

> <Dihedral Energy>
13.07331

> <OOPLane>
0.09786

> <Van der Waals Energy>
54.87803

> <Electrostatic Energy>
-58.17366

> <Hydrogen Bond Energy>
0

> <Solvation Free Energy>
0

> <HasGasteigerCharges>
true

> <REMARK99>
REMARK  99  MacroMolecule created from Mol2 file
REMARK  99  CHEMBL2331781
REMARK  99  PROTEIN
REMARK  99  GASTEIGER
REMARK  99
REMARK  99

$$$$
CHEMBL4865961
  SciTegic05292516403D

 44 46  0  0  0  0            999 V2000
   38.1290  -24.5055    0.3379 C   0  0
   28.0706  -28.5902    0.1003 C   0  0
   28.0842  -29.9230    0.5676 C   0  0
   29.2838  -30.5984    0.8102 C   0  0
   29.2765  -27.9114   -0.1245 C   0  0
   26.8147  -28.0762   -0.0916 O   0  0
   30.4549  -28.5919    0.1200 C   0  0
   30.4492  -29.9048    0.5739 C   0  0
   31.8345  -30.3283    0.7155 C   0  0
   32.5934  -29.1146    0.3148 C   0  0
   31.7249  -28.0889   -0.0480 O   0  0
   33.9323  -29.0681    0.3104 C   0  0
   34.7726  -27.9203   -0.0624 C   0  0
   32.2220  -31.4240    1.0633 O   0  0
   36.0423  -28.1730   -0.6023 C   0  0
   36.9221  -27.1270   -0.9181 C   0  0
   36.5246  -25.8114   -0.6455 C   0  0
   35.2415  -25.5239   -0.1578 C   0  0
   34.3883  -26.5912    0.1599 C   0  0
   34.7895  -24.1121    0.0874 C   0  0
   38.2780  -27.4368   -1.4835 C   0  0
   37.4076  -24.7832   -0.8615 O   0  0
   38.2918  -23.0086    0.5714 C   0  0
   38.6329  -22.7117    1.8552 O   0  0
   38.1771  -22.1306   -0.2713 O   0  0
   26.7402  -26.7468   -0.5939 C   0  0
   39.1326  -24.9344    0.2439 H   0  0
   37.6427  -24.9332    1.2252 H   0  0
   27.1390  -30.4349    0.7384 H   0  0
   29.2978  -31.6239    1.1628 H   0  0
   29.3234  -26.8887   -0.4779 H   0  0
   34.4753  -29.9673    0.5998 H   0  0
   36.3550  -29.2006   -0.7832 H   0  0
   33.4179  -26.3683    0.5973 H   0  0
   33.6963  -24.0445    0.0938 H   0  0
   35.1446  -23.4441   -0.7040 H   0  0
   35.1642  -23.7593    1.0531 H   0  0
   39.0307  -27.4118   -0.6897 H   0  0
   38.5503  -26.7167   -2.2620 H   0  0
   38.2961  -28.4293   -1.9463 H   0  0
   38.6486  -23.4903    2.4455 H   0  0
   25.6821  -26.4915   -0.7066 H   0  0
   27.2083  -26.6703   -1.5809 H   0  0
   27.1816  -26.0342    0.1107 H   0  0
  1 23  1  0
  1 27  1  0
  1 28  1  0
  2  3  2  0
  2  6  1  0
  3  4  1  0
  3 29  1  0
  4  8  2  0
  4 30  1  0
  5  2  1  0
  5 31  1  0
  6 26  1  0
  7  5  2  0
  7  8  1  0
  8  9  1  0
  9 10  1  0
  9 14  2  0
 10 11  1  0
 10 12  2  0
 11  7  1  0
 12 13  1  0
 12 32  1  0
 13 15  2  0
 15 16  1  0
 15 33  1  0
 16 17  2  0
 16 21  1  0
 17 18  1  0
 17 22  1  0
 18 19  2  0
 18 20  1  0
 19 13  1  0
 19 34  1  0
 20 35  1  0
 20 36  1  0
 20 37  1  0
 21 38  1  0
 21 39  1  0
 21 40  1  0
 22  1  1  0
 23 24  1  0
 23 25  2  0
 24 41  1  0
 26 42  1  0
 26 43  1  0
 26 44  1  0
M  END
> <Name>
CHEMBL4865961

> <Clean Energy>
36.694199

> <chembl_id>
CHEMBL4865961

> <chembl_pref_name>
None

> <efficacy>
0.25

> <Forcefield>
MMFF

> <ForcefieldBase>
MMFF

> <ForcefieldFFML>
<?xml version="1.0" encoding="UTF-8"?>
<!DOCTYPE ffml SYSTEM "Ffml.dtd">
<ffml version="1.0">
<forcefield name="MMFF" derivedFrom="MMFF" base="MMFF">
<atomTypes>
<atomType
name="C100"
element="C"
mass="12.011"
annotation=""/>
<atomType
name="O101"
element="O"
mass="16"
annotation=""/>
<atomType
name="H102"
element="H"
mass="1.008"
annotation=""/>
</atomTypes>
<parameters>
</parameters>
</forcefield>
</ffml>

> <Initial Potential Energy>
146.60327

> <Initial RMS Gradient>
26.78022

> <Minimization Criteria>
CONJUG> Minimization exiting with gradient tolerance ( 0.0100000) satisfied.

> <CHARMm Energy>
84.65489

> <Potential Energy>
84.65489

> <RMS Gradient>
0.00806

> <Bond Energy>
4.10455

> <Angle Energy>
26.19382

> <STRBend>
0.13658

> <Dihedral Energy>
7.26744

> <OOPLane>
0.07627

> <Van der Waals Energy>
47.41269

> <Electrostatic Energy>
-0.53646

> <Hydrogen Bond Energy>
0

> <Solvation Free Energy>
0

> <HasGasteigerCharges>
true

> <REMARK99>
REMARK  99  MacroMolecule created from Mol2 file
REMARK  99  CHEMBL4865961
REMARK  99  PROTEIN
REMARK  99  GASTEIGER
REMARK  99
REMARK  99

$$$$
CHEMBL5191690
  SciTegic05292516403D

 57 58  0  0  0  0            999 V2000
    6.3492   -2.5813   -0.4718 C   0  0
    6.8738   -2.6395   -1.9103 C   0  0
    7.4844   -2.4096    0.5437 C   0  0
    5.6055   -3.8893   -0.1637 C   0  0
    5.3498   -1.5397   -0.3206 O   0  0
    5.6682   -0.2447   -0.5007 C   0  0
    6.7455    0.2223   -0.8371 O   0  0
    4.5758    0.5290   -0.3018 N   0  0
    4.6132    1.9734   -0.0300 C   0  0  1  0  0  0
    5.0695    2.8912   -1.1840 C   0  0
    5.8245    2.3134   -2.1431 O   0  0
    4.8751    4.1029   -1.2076 O   0  0
    3.2317    2.4778    0.4326 C   0  0
    2.5739    1.4810    1.8241 S   0  0
    1.0538    2.4173    2.1630 C   0  0
   -0.1711    1.5874    1.8800 C   0  0
   -0.7545    0.8137    2.8950 C   0  0
   -1.9056    0.0648    2.6433 C   0  0
   -2.4879    0.0869    1.3743 C   0  0
   -1.8766    0.8039    0.3390 C   0  0
   -0.7291    1.5568    0.5941 C   0  0
   -3.7659   -0.6398    1.1643 C   0  0
   -3.9762   -1.7074    1.7374 O   0  0
   -4.8335   -0.0640    0.3017 C   0  0
   -5.7040   -0.9347   -0.3602 C   0  0
   -6.7276   -0.4252   -1.1633 C   0  0
   -6.8891    0.9575   -1.3154 C   0  0
   -6.0406    1.8254   -0.6199 C   0  0
   -5.0195    1.3193    0.1876 C   0  0
   -8.0080    1.5028   -2.1520 C   0  0
    6.0443   -2.6783   -2.6252 H   0  0
    7.5103   -3.5169   -2.0673 H   0  0
    7.4656   -1.7552   -2.1649 H   0  0
    7.0846   -2.2809    1.5561 H   0  0
    8.0906   -1.5235    0.3316 H   0  0
    8.1562   -3.2749    0.5417 H   0  0
    5.1853   -3.8698    0.8488 H   0  0
    6.2626   -4.7612   -0.2485 H   0  0
    4.7588   -4.0263   -0.8464 H   0  0
    3.7612    0.0159    0.0202 H   0  0
    5.3519    2.1151    0.7700 H   0  0
    6.1811    1.4354   -1.8771 H   0  0
    3.2988    3.5222    0.7563 H   0  0
    2.5137    2.4200   -0.3934 H   0  0
    1.0651    2.7158    3.2175 H   0  0
    1.0195    3.3473    1.5843 H   0  0
   -0.3186    0.7946    3.8924 H   0  0
   -2.3559   -0.5196    3.4422 H   0  0
   -2.2875    0.7925   -0.6677 H   0  0
   -0.2760    2.1240   -0.2164 H   0  0
   -5.6026   -2.0129   -0.2432 H   0  0
   -7.4050   -1.1159   -1.6620 H   0  0
   -6.1738    2.9025   -0.6965 H   0  0
   -4.3912    2.0193    0.7325 H   0  0
   -7.7356    2.4706   -2.5862 H   0  0
   -8.9056    1.6297   -1.5392 H   0  0
   -8.2386    0.8283   -2.9831 H   0  0
  1  2  1  0
  1  3  1  0
  1  4  1  0
  1  5  1  0
  2 31  1  0
  2 32  1  0
  2 33  1  0
  3 34  1  0
  3 35  1  0
  3 36  1  0
  4 37  1  0
  4 38  1  0
  4 39  1  0
  5  6  1  0
  6  7  2  0
  6  8  1  0
  8  9  1  0
  8 40  1  0
  9 10  1  0
  9 13  1  0
  9 41  1  0
 10 11  1  0
 10 12  2  0
 11 42  1  0
 13 14  1  0
 13 43  1  0
 13 44  1  0
 14 15  1  0
 15 16  1  0
 15 45  1  0
 15 46  1  0
 16 17  1  0
 16 21  2  0
 17 18  2  0
 17 47  1  0
 18 19  1  0
 18 48  1  0
 19 20  2  0
 19 22  1  0
 20 21  1  0
 20 49  1  0
 21 50  1  0
 22 23  2  0
 22 24  1  0
 24 25  1  0
 24 29  2  0
 25 26  2  0
 25 51  1  0
 26 27  1  0
 26 52  1  0
 27 28  2  0
 27 30  1  0
 28 29  1  0
 28 53  1  0
 29 54  1  0
 30 55  1  0
 30 56  1  0
 30 57  1  0
M  END
> <Name>
CHEMBL5191690

> <Clean Energy>
17.6831

> <chembl_id>
CHEMBL5191690

> <chembl_pref_name>
None

> <efficacy>
0.17

> <Forcefield>
MMFF

> <ForcefieldBase>
MMFF

> <ForcefieldFFML>
<?xml version="1.0" encoding="UTF-8"?>
<!DOCTYPE ffml SYSTEM "Ffml.dtd">
<ffml version="1.0">
<forcefield name="MMFF" derivedFrom="MMFF" base="MMFF">
<atomTypes>
<atomType
name="C100"
element="C"
mass="12.011"
annotation=""/>
<atomType
name="O101"
element="O"
mass="16"
annotation=""/>
<atomType
name="N102"
element="N"
mass="14.007"
annotation=""/>
<atomType
name="S103"
element="S"
mass="32.066"
annotation=""/>
<atomType
name="H104"
element="H"
mass="1.008"
annotation=""/>
</atomTypes>
<parameters>
</parameters>
</forcefield>
</ffml>

> <Initial Potential Energy>
169.3145

> <Initial RMS Gradient>
32.7728

> <Minimization Criteria>
STEEPD> Minimization exiting with gradient tolerance ( 3.0000000) satisfied.

> <CHARMm Energy>
33.42779

> <Potential Energy>
33.42779

> <RMS Gradient>
0.07716

> <Bond Energy>
6.48274

> <Angle Energy>
14.1697

> <STRBend>
1.16186

> <Dihedral Energy>
12.03499

> <OOPLane>
0.77686

> <Van der Waals Energy>
56.23306

> <Electrostatic Energy>
-57.43141

> <Hydrogen Bond Energy>
0

> <Solvation Free Energy>
0

> <HasGasteigerCharges>
true

> <REMARK99>
REMARK  99  MacroMolecule created from Mol2 file
REMARK  99  CHEMBL5191690
REMARK  99  PROTEIN
REMARK  99  GASTEIGER
REMARK  99
REMARK  99

$$$$
CHEMBL4176938
  SciTegic05292516403D

 48 51  0  0  0  0            999 V2000
   37.7030   -8.5539    1.0335 C   0  0
   38.8229   -9.1185    1.6271 C   0  0
   40.0296   -9.2071    1.0292 N   0  0
   40.1240   -8.6898   -0.2155 C   0  0
   39.0562   -8.1268   -0.9012 C   0  0
   37.8135   -8.0579   -0.2671 C   0  0
   41.3244   -8.7788   -0.9033 O   0  0
   42.4968   -8.5001   -0.2327 C   0  0
   43.6423   -9.1024   -0.7768 C   0  0
   43.8416   -7.3096    1.4077 C   0  0
   42.5962   -7.6088    0.8403 C   0  0
   44.9941   -7.8994    0.8677 C   0  0
   44.8810   -8.7783   -0.2046 C   0  0
   46.1795   -9.1447   -0.4782 N   0  0
   47.0103   -8.4754    0.3974 C   0  0
   46.3051   -7.7274    1.2259 N   0  0
   46.6025  -10.0525   -1.5185 C   0  0
   48.5032   -8.5135    0.3479 C   0  0
   48.9303   -9.8772    0.3822 O   0  0
   50.2783  -10.1082    0.3073 C   0  0
   50.6476  -11.4539    0.4123 C   0  0
   51.9897  -11.8379    0.3621 C   0  0
   52.9793  -10.8744    0.1895 C   0  0
   52.6162   -9.5315    0.0597 C   0  0
   51.2700   -9.1407    0.1369 C   0  0
   53.6873   -8.5305   -0.1396 C   0  0
   54.7337   -8.5343    0.4818 O   0  0
   53.3927   -7.6491   -1.1190 O   0  0
   36.6406   -7.4159   -0.9442 C   0  0
   36.7627   -8.5109    1.5761 H   0  0
   38.7769   -9.5265    2.6328 H   0  0
   39.1996   -7.7463   -1.9067 H   0  0
   43.5612   -9.7791   -1.6197 H   0  0
   43.9305   -6.6188    2.2386 H   0  0
   41.7111   -7.1286    1.2510 H   0  0
   47.4934   -9.6509   -2.0074 H   0  0
   45.8121  -10.1578   -2.2647 H   0  0
   46.8148  -11.0216   -1.0606 H   0  0
   48.8329   -8.0278   -0.5784 H   0  0
   48.9062   -7.9750    1.2139 H   0  0
   49.8812  -12.2135    0.5539 H   0  0
   52.2585  -12.8866    0.4638 H   0  0
   54.0273  -11.1670    0.1576 H   0  0
   51.0264   -8.0841    0.0917 H   0  0
   52.6048   -7.8758   -1.6480 H   0  0
   35.7015   -7.8721   -0.6138 H   0  0
   36.6991   -7.5428   -2.0303 H   0  0
   36.6149   -6.3464   -0.7141 H   0  0
  1  2  2  0
  1 30  1  0
  2  3  1  0
  2 31  1  0
  3  4  2  0
  4  5  1  0
  4  7  1  0
  5  6  2  0
  5 32  1  0
  6  1  1  0
  6 29  1  0
  7  8  1  0
  8  9  2  0
  9 13  1  0
  9 33  1  0
 10 11  2  0
 10 34  1  0
 11  8  1  0
 11 35  1  0
 12 10  1  0
 12 13  2  0
 13 14  1  0
 14 15  1  0
 14 17  1  0
 15 16  2  0
 15 18  1  0
 16 12  1  0
 17 36  1  0
 17 37  1  0
 17 38  1  0
 18 19  1  0
 18 39  1  0
 18 40  1  0
 19 20  1  0
 20 21  2  0
 21 22  1  0
 21 41  1  0
 22 23  2  0
 22 42  1  0
 23 24  1  0
 23 43  1  0
 24 25  2  0
 24 26  1  0
 25 20  1  0
 25 44  1  0
 26 27  2  0
 26 28  1  0
 28 45  1  0
 29 46  1  0
 29 47  1  0
 29 48  1  0
M  END
> <Name>
CHEMBL4176938

> <Clean Energy>
30.9844

> <chembl_id>
CHEMBL4176938

> <chembl_pref_name>
None

> <efficacy>
0.41

> <Forcefield>
MMFF

> <ForcefieldBase>
MMFF

> <ForcefieldFFML>
<?xml version="1.0" encoding="UTF-8"?>
<!DOCTYPE ffml SYSTEM "Ffml.dtd">
<ffml version="1.0">
<forcefield name="MMFF" derivedFrom="MMFF" base="MMFF">
<atomTypes>
<atomType
name="C100"
element="C"
mass="12.011"
annotation=""/>
<atomType
name="N101"
element="N"
mass="14.007"
annotation=""/>
<atomType
name="O102"
element="O"
mass="16"
annotation=""/>
<atomType
name="H103"
element="H"
mass="1.008"
annotation=""/>
</atomTypes>
<parameters>
</parameters>
</forcefield>
</ffml>

> <Initial Potential Energy>
191.9005

> <Initial RMS Gradient>
45.20823

> <Minimization Criteria>
CONJUG> Minimization exiting with gradient tolerance ( 0.0100000) satisfied.

> <CHARMm Energy>
64.87529

> <Potential Energy>
64.87529

> <RMS Gradient>
0.00934

> <Bond Energy>
4.44005

> <Angle Energy>
16.68592

> <STRBend>
0.42542

> <Dihedral Energy>
8.47145

> <OOPLane>
0.19097

> <Van der Waals Energy>
58.43703

> <Electrostatic Energy>
-23.77555

> <Hydrogen Bond Energy>
0

> <Solvation Free Energy>
0

> <HasGasteigerCharges>
true

> <REMARK99>
REMARK  99  MacroMolecule created from Mol2 file
REMARK  99  CHEMBL4176938
REMARK  99  PROTEIN
REMARK  99  GASTEIGER
REMARK  99
REMARK  99

$$$$
CHEMBL4165766
  SciTegic05292516403D

 48 51  0  0  0  0            999 V2000
   24.3350   -8.8028    0.3772 C   0  0
   25.4671   -9.2019    1.0810 C   0  0
   26.7128   -9.2450    0.5578 N   0  0
   26.8447   -8.8454   -0.7258 C   0  0
   25.7802   -8.4389   -1.5165 C   0  0
   24.5082   -8.4060   -0.9500 C   0  0
   28.0852   -8.9011   -1.3447 O   0  0
   29.2131   -8.5836   -0.6182 C   0  0
   30.3939   -9.1969   -1.0659 C   0  0
   30.4476   -7.3098    1.0462 C   0  0
   29.2414   -7.6434    0.4163 C   0  0
   31.6349   -7.9131    0.6049 C   0  0
   31.5932   -8.8368   -0.4343 C   0  0
   32.9087   -9.2003   -0.6152 N   0  0
   33.6800   -8.4923    0.2843 C   0  0
   32.9204   -7.7170    1.0363 N   0  0
   33.4001  -10.1376   -1.5974 C   0  0
   35.1738   -8.5205    0.3306 C   0  0
   35.6085   -9.8795    0.4185 O   0  0
   36.9601  -10.1015    0.4179 C   0  0
   37.3322  -11.4441    0.5498 C   0  0
   38.6776  -11.8191    0.5747 C   0  0
   39.6687  -10.8494    0.4518 C   0  0
   39.3042   -9.5097    0.2958 C   0  0
   37.9531   -9.1279    0.2978 C   0  0
   40.3779   -8.5024    0.1499 C   0  0
   41.3894   -8.4966    0.8267 O   0  0
   40.1309   -7.6274   -0.8481 O   0  0
   22.9928   -8.7478    1.0366 C   0  0
   25.4053   -9.5107    2.1214 H   0  0
   25.9408   -8.1470   -2.5478 H   0  0
   23.6592   -8.0772   -1.5453 H   0  0
   30.3692   -9.9096   -1.8822 H   0  0
   30.4802   -6.5828    1.8498 H   0  0
   28.3294   -7.1524    0.7478 H   0  0
   34.3148   -9.7429   -2.0464 H   0  0
   32.6563  -10.2762   -2.3849 H   0  0
   33.5934  -11.0888   -1.0955 H   0  0
   35.5575   -8.0497   -0.5826 H   0  0
   35.5175   -7.9625    1.2096 H   0  0
   36.5647  -12.2088    0.6529 H   0  0
   38.9474  -12.8654    0.6958 H   0  0
   40.7188  -11.1348    0.4786 H   0  0
   37.7052   -8.0732    0.2354 H   0  0
   39.3744   -7.8617   -1.4181 H   0  0
   22.8362   -7.7625    1.4864 H   0  0
   22.9094   -9.5104    1.8181 H   0  0
   22.1941   -8.9368    0.3116 H   0  0
  1  2  2  0
  1 29  1  0
  2  3  1  0
  2 30  1  0
  3  4  2  0
  4  5  1  0
  4  7  1  0
  5  6  2  0
  5 31  1  0
  6  1  1  0
  6 32  1  0
  7  8  1  0
  8  9  2  0
  9 13  1  0
  9 33  1  0
 10 11  2  0
 10 34  1  0
 11  8  1  0
 11 35  1  0
 12 10  1  0
 12 13  2  0
 13 14  1  0
 14 15  1  0
 14 17  1  0
 15 16  2  0
 15 18  1  0
 16 12  1  0
 17 36  1  0
 17 37  1  0
 17 38  1  0
 18 19  1  0
 18 39  1  0
 18 40  1  0
 19 20  1  0
 20 21  2  0
 21 22  1  0
 21 41  1  0
 22 23  2  0
 22 42  1  0
 23 24  1  0
 23 43  1  0
 24 25  2  0
 24 26  1  0
 25 20  1  0
 25 44  1  0
 26 27  2  0
 26 28  1  0
 28 45  1  0
 29 46  1  0
 29 47  1  0
 29 48  1  0
M  END
> <Name>
CHEMBL4165766

> <Clean Energy>
31.268801

> <chembl_id>
CHEMBL4165766

> <chembl_pref_name>
None

> <efficacy>
0.42

> <Forcefield>
MMFF

> <ForcefieldBase>
MMFF

> <ForcefieldFFML>
<?xml version="1.0" encoding="UTF-8"?>
<!DOCTYPE ffml SYSTEM "Ffml.dtd">
<ffml version="1.0">
<forcefield name="MMFF" derivedFrom="MMFF" base="MMFF">
<atomTypes>
<atomType
name="C100"
element="C"
mass="12.011"
annotation=""/>
<atomType
name="N101"
element="N"
mass="14.007"
annotation=""/>
<atomType
name="O102"
element="O"
mass="16"
annotation=""/>
<atomType
name="H103"
element="H"
mass="1.008"
annotation=""/>
</atomTypes>
<parameters>
</parameters>
</forcefield>
</ffml>

> <Initial Potential Energy>
194.87669

> <Initial RMS Gradient>
45.72702

> <Minimization Criteria>
CONJUG> Minimization exiting with gradient tolerance ( 0.0100000) satisfied.

> <CHARMm Energy>
65.6027

> <Potential Energy>
65.6027

> <RMS Gradient>
0.00833

> <Bond Energy>
4.43948

> <Angle Energy>
17.06143

> <STRBend>
0.41909

> <Dihedral Energy>
8.0421

> <OOPLane>
0.19981

> <Van der Waals Energy>
58.38499

> <Electrostatic Energy>
-22.9442

> <Hydrogen Bond Energy>
0

> <Solvation Free Energy>
0

> <HasGasteigerCharges>
true

> <REMARK99>
REMARK  99  MacroMolecule created from Mol2 file
REMARK  99  CHEMBL4165766
REMARK  99  PROTEIN
REMARK  99  GASTEIGER
REMARK  99
REMARK  99

$$$$
CHEMBL4762401
  SciTegic05292516403D

 35 37  0  0  0  0            999 V2000
   10.3572  -10.8534   -0.7383 C   0  0
   11.7952  -10.4501   -0.5327 C   0  0
   12.6382  -11.2314    0.2684 C   0  0
   13.9423  -10.8115    0.5340 C   0  0
   14.4269   -9.6146    0.0012 C   0  0
   13.5831   -8.8431   -0.8094 C   0  0
   12.2812   -9.2594   -1.0827 C   0  0
   15.7144   -9.1854    0.3645 N   0  0
   16.3594   -8.7913   -0.6302 N   0  0
   17.5794   -8.2312   -0.2197 C   0  0
   18.7838   -8.8044   -0.6396 C   0  0
   20.0081   -8.2395   -0.2682 C   0  0
   20.0338   -7.0902    0.5211 C   0  0
   18.8394   -6.5023    0.9369 C   0  0
   17.6215   -7.0674    0.5626 C   0  0
    9.4786  -10.4741    0.4555 C   0  0  1  0  0  0
    9.1426   -8.6809    0.5768 S   0  0
    7.4234   -8.8872    0.4336 C   0  0
    7.1120  -10.1979    0.3145 N   0  0
    8.1199  -11.1122    0.3025 C   0  0
    7.9297  -12.3149    0.1752 O   0  0
    6.6256   -7.9667    0.4334 O   0  0
    9.9681  -10.4226   -1.6709 H   0  0
   10.3311  -11.9399   -0.8990 H   0  0
   12.2818  -12.1617    0.7063 H   0  0
   14.5847  -11.4119    1.1732 H   0  0
   13.9381   -7.8992   -1.2154 H   0  0
   11.6451   -8.6306   -1.7018 H   0  0
   18.7749   -9.6981   -1.2587 H   0  0
   20.9402   -8.6935   -0.5965 H   0  0
   20.9860   -6.6497    0.8090 H   0  0
   18.8613   -5.6029    1.5474 H   0  0
   16.6874   -6.6094    0.8814 H   0  0
    9.9044  -10.8124    1.4065 H   0  0
    6.1496  -10.4845    0.2205 H   0  0
  1  2  1  0
  1 16  1  0
  1 23  1  0
  1 24  1  0
  2  3  2  0
  3  4  1  0
  3 25  1  0
  4  5  2  0
  4 26  1  0
  5  6  1  0
  5  8  1  0
  6  7  2  0
  6 27  1  0
  7  2  1  0
  7 28  1  0
  8  9  2  0
  9 10  1  0
 10 11  2  0
 11 12  1  0
 11 29  1  0
 12 13  2  0
 12 30  1  0
 13 14  1  0
 13 31  1  0
 14 15  2  0
 14 32  1  0
 15 10  1  0
 15 33  1  0
 16 17  1  0
 16 34  1  0
 17 18  1  0
 18 19  1  0
 18 22  2  0
 19 20  1  0
 19 35  1  0
 20 16  1  0
 20 21  2  0
M  END
> <Name>
CHEMBL4762401

> <Clean Energy>
22.5417

> <chembl_id>
CHEMBL4762401

> <chembl_pref_name>
None

> <efficacy>
0.199430199

> <Forcefield>
MMFF

> <ForcefieldBase>
MMFF

> <ForcefieldFFML>
<?xml version="1.0" encoding="UTF-8"?>
<!DOCTYPE ffml SYSTEM "Ffml.dtd">
<ffml version="1.0">
<forcefield name="MMFF" derivedFrom="MMFF" base="MMFF">
<atomTypes>
<atomType
name="C100"
element="C"
mass="12.011"
annotation=""/>
<atomType
name="N101"
element="N"
mass="14.007"
annotation=""/>
<atomType
name="S102"
element="S"
mass="32.066"
annotation=""/>
<atomType
name="O103"
element="O"
mass="16"
annotation=""/>
<atomType
name="H104"
element="H"
mass="1.008"
annotation=""/>
</atomTypes>
<parameters>
</parameters>
</forcefield>
</ffml>

> <Initial Potential Energy>
36.18522

> <Initial RMS Gradient>
32.77446

> <Minimization Criteria>
CONJUG> Minimization exiting with gradient tolerance ( 0.0100000) satisfied.

> <CHARMm Energy>
-17.94593

> <Potential Energy>
-17.94593

> <RMS Gradient>
0.00967

> <Bond Energy>
3.4797

> <Angle Energy>
3.13091

> <STRBend>
-0.07153

> <Dihedral Energy>
11.15396

> <OOPLane>
0.06936

> <Van der Waals Energy>
34.99508

> <Electrostatic Energy>
-70.70341

> <Hydrogen Bond Energy>
0

> <Solvation Free Energy>
0

> <HasGasteigerCharges>
true

> <REMARK99>
REMARK  99  MacroMolecule created from Mol2 file
REMARK  99  CHEMBL4762401
REMARK  99  PROTEIN
REMARK  99  GASTEIGER
REMARK  99
REMARK  99

$$$$
CHEMBL2331783
  SciTegic05292516403D

 37 39  0  0  0  0            999 V2000
   11.8976  -29.0322   -0.8535 C   0  0
   11.2744  -29.7625    0.1522 C   0  0
   10.5931  -29.0939    1.1705 C   0  0
   10.4750  -27.7015    1.1295 C   0  0
   11.0393  -26.9748    0.0779 C   0  0
   11.7854  -27.6458   -0.8954 C   0  0
    9.7256  -24.6132    0.6393 S   0  0
   10.9097  -25.5679   -0.0690 N   0  0
    8.1780  -25.2006   -0.0021 C   0  0
    6.9803  -24.9090    0.6597 C   0  0
    5.7718  -25.4123    0.1606 C   0  0
    5.7597  -26.1840   -0.9986 C   0  0
    6.9434  -26.4496   -1.6799 C   0  0
    8.1520  -25.9517   -1.1885 C   0  0
   11.3548  -31.1355    0.1242 O   0  0
    9.1741  -31.5070   -0.8771 C   0  0
   10.1392  -31.7750    0.0907 C   0  0
    9.8674  -32.7327    1.0610 C   0  0
    8.6181  -33.3402    1.0641 C   0  0
    7.6983  -32.9803    0.0871 C   0  0
    7.9505  -32.0814   -0.8952 N   0  0
    8.2184  -34.4999    2.2651 Cl  0  0
    9.7712  -24.8527    2.0641 O   0  0
    9.9204  -23.2947    0.0763 O   0  0
    4.2710  -26.7968   -1.6026 Cl  0  0
    6.8677  -23.8930    2.0519 Cl  0  0
   12.5728  -29.6602   -1.8262 F   0  0
   10.1423  -29.6441    1.9922 H   0  0
    9.9356  -27.2194    1.9398 H   0  0
   12.2638  -27.1134   -1.7109 H   0  0
   11.4878  -25.0689   -0.7421 H   0  0
    4.8367  -25.1928    0.6716 H   0  0
    6.9308  -27.0376   -2.5952 H   0  0
    9.0581  -26.1537   -1.7533 H   0  0
    9.3574  -30.7990   -1.6807 H   0  0
   10.6105  -32.9792    1.8132 H   0  0
    6.7011  -33.4092    0.0631 H   0  0
  1  2  1  0
  1  6  2  0
  1 27  1  0
  2  3  2  0
  2 15  1  0
  3  4  1  0
  3 28  1  0
  4  5  2  0
  4 29  1  0
  5  6  1  0
  5  8  1  0
  6 30  1  0
  7  8  1  0
  7  9  1  0
  7 23  2  0
  7 24  2  0
  8 31  1  0
  9 10  1  0
  9 14  2  0
 10 11  2  0
 10 26  1  0
 11 12  1  0
 11 32  1  0
 12 13  2  0
 12 25  1  0
 13 14  1  0
 13 33  1  0
 14 34  1  0
 15 17  1  0
 16 17  1  0
 16 21  2  0
 16 35  1  0
 17 18  2  0
 18 19  1  0
 18 36  1  0
 19 20  2  0
 19 22  1  0
 20 21  1  0
 20 37  1  0
M  END
> <Name>
CHEMBL2331783

> <Clean Energy>
32.7733

> <chembl_id>
CHEMBL2331783

> <chembl_pref_name>
None

> <efficacy>
0.18

> <Forcefield>
MMFF

> <ForcefieldBase>
MMFF

> <ForcefieldFFML>
<?xml version="1.0" encoding="UTF-8"?>
<!DOCTYPE ffml SYSTEM "Ffml.dtd">
<ffml version="1.0">
<forcefield name="MMFF" derivedFrom="MMFF" base="MMFF">
<atomTypes>
<atomType
name="C100"
element="C"
mass="12.011"
annotation=""/>
<atomType
name="S101"
element="S"
mass="32.066"
annotation=""/>
<atomType
name="N102"
element="N"
mass="14.007"
annotation=""/>
<atomType
name="O103"
element="O"
mass="16"
annotation=""/>
<atomType
name="Cl104"
element="Cl"
mass="35.453"
annotation=""/>
<atomType
name="F105"
element="F"
mass="18.998"
annotation=""/>
<atomType
name="H106"
element="H"
mass="1.008"
annotation=""/>
</atomTypes>
<parameters>
</parameters>
</forcefield>
</ffml>

> <Initial Potential Energy>
635.97004

> <Initial RMS Gradient>
335.95837

> <Minimization Criteria>
STEEPD> Minimization exiting with gradient tolerance ( 3.0000000) satisfied.

> <CHARMm Energy>
16.77041

> <Potential Energy>
16.77041

> <RMS Gradient>
0.22523

> <Bond Energy>
3.52205

> <Angle Energy>
14.09602

> <STRBend>
0.35022

> <Dihedral Energy>
6.30583

> <OOPLane>
0.03148

> <Van der Waals Energy>
51.46754

> <Electrostatic Energy>
-59.00273

> <Hydrogen Bond Energy>
0

> <Solvation Free Energy>
0

> <HasGasteigerCharges>
true

> <REMARK99>
REMARK  99  MacroMolecule created from Mol2 file
REMARK  99  CHEMBL2331783
REMARK  99  PROTEIN
REMARK  99  GASTEIGER
REMARK  99
REMARK  99

$$$$
CHEMBL3751930
  SciTegic05292516403D

 47 48  0  0  0  0            999 V2000
    6.1371   -5.3458   -0.9606 C   0  0
    5.1435   -5.6516    0.1773 C   0  0
    5.7379   -5.1105    1.4882 C   0  0
    3.7541   -5.0458   -0.1413 C   0  0
    3.6972   -3.5184   -0.2126 C   0  0
    2.2741   -3.0397   -0.4973 C   0  0
    2.2678   -1.6140   -0.4401 O   0  0
    1.0359   -1.0158   -0.4342 C   0  0
    1.0350    0.3341   -0.0811 C   0  0
   -0.1624    1.0572   -0.0259 C   0  0
   -1.3814    0.4377   -0.3216 C   0  0
   -1.3718   -0.9092   -0.7037 C   0  0
   -0.1725   -1.6319   -0.7586 C   0  0
   -2.6166    1.2340   -0.2839 C   0  0
   -3.7902    0.7769    0.1850 C   0  0
   -5.0315    1.5702    0.2205 C   0  0
    4.9811   -7.1763    0.2808 C   0  0
    5.4415   -7.9788   -0.5176 O   0  0
    4.2402   -7.5877    1.3365 O   0  0
   -6.2549    0.9256    0.0248 C   0  0
   -7.4232    1.6723    0.0884 C   0  0
   -7.4583    2.9971    0.3420 N   0  0
   -6.2664    3.5984    0.5439 C   0  0
   -5.0458    2.9384    0.4989 C   0  0
    7.0914   -5.8620   -0.8008 H   0  0
    6.3550   -4.2754   -1.0357 H   0  0
    5.7461   -5.6773   -1.9295 H   0  0
    5.0109   -5.1359    2.3069 H   0  0
    6.0730   -4.0728    1.3823 H   0  0
    6.6035   -5.7056    1.8019 H   0  0
    3.3926   -5.4612   -1.0923 H   0  0
    3.0290   -5.3753    0.6142 H   0  0
    4.0366   -3.0735    0.7298 H   0  0
    4.3643   -3.1336   -0.9919 H   0  0
    1.9655   -3.3738   -1.4950 H   0  0
    1.5985   -3.4538    0.2618 H   0  0
    1.9735    0.8280    0.1601 H   0  0
   -0.1267    2.1035    0.2628 H   0  0
   -2.2952   -1.4129   -0.9790 H   0  0
   -0.2197   -2.6695   -1.0718 H   0  0
   -2.5301    2.2504   -0.6654 H   0  0
   -3.8811   -0.2370    0.5666 H   0  0
    3.8846   -6.8745    1.8977 H   0  0
   -6.3086   -0.1378   -0.1828 H   0  0
   -8.3914    1.2054   -0.0673 H   0  0
   -6.3137    4.6626    0.7557 H   0  0
   -4.1332    3.4911    0.6919 H   0  0
  1 25  1  0
  1 26  1  0
  1 27  1  0
  2  1  1  0
  2  4  1  0
  2 17  1  0
  3  2  1  0
  3 28  1  0
  3 29  1  0
  3 30  1  0
  4  5  1  0
  4 31  1  0
  4 32  1  0
  5  6  1  0
  5 33  1  0
  5 34  1  0
  6  7  1  0
  6 35  1  0
  6 36  1  0
  7  8  1  0
  8  9  1  0
  8 13  2  0
  9 10  2  0
  9 37  1  0
 10 11  1  0
 10 38  1  0
 11 12  2  0
 11 14  1  0
 12 13  1  0
 12 39  1  0
 13 40  1  0
 14 15  2  0
 14 41  1  0
 15 16  1  0
 15 42  1  0
 16 20  2  0
 17 18  2  0
 17 19  1  0
 19 43  1  0
 20 21  1  0
 20 44  1  0
 21 22  2  0
 21 45  1  0
 22 23  1  0
 23 24  2  0
 23 46  1  0
 24 16  1  0
 24 47  1  0
M  END
> <Name>
CHEMBL3751930

> <Clean Energy>
10.4892

> <chembl_id>
CHEMBL3751930

> <chembl_pref_name>
None

> <efficacy>
0.42

> <Forcefield>
MMFF

> <ForcefieldBase>
MMFF

> <ForcefieldFFML>
<?xml version="1.0" encoding="UTF-8"?>
<!DOCTYPE ffml SYSTEM "Ffml.dtd">
<ffml version="1.0">
<forcefield name="MMFF" derivedFrom="MMFF" base="MMFF">
<atomTypes>
<atomType
name="C100"
element="C"
mass="12.011"
annotation=""/>
<atomType
name="O101"
element="O"
mass="16"
annotation=""/>
<atomType
name="N102"
element="N"
mass="14.007"
annotation=""/>
<atomType
name="H103"
element="H"
mass="1.008"
annotation=""/>
</atomTypes>
<parameters>
</parameters>
</forcefield>
</ffml>

> <Initial Potential Energy>
83.92726

> <Initial RMS Gradient>
27.03299

> <Minimization Criteria>
STEEPD> Minimization exiting with gradient tolerance ( 3.0000000) satisfied.

> <CHARMm Energy>
31.15613

> <Potential Energy>
31.15613

> <RMS Gradient>
0.03379

> <Bond Energy>
4.59974

> <Angle Energy>
10.28908

> <STRBend>
0.88489

> <Dihedral Energy>
2.60262

> <OOPLane>
0.04544

> <Van der Waals Energy>
50.97377

> <Electrostatic Energy>
-38.23941

> <Hydrogen Bond Energy>
0

> <Solvation Free Energy>
0

> <HasGasteigerCharges>
true

> <REMARK99>
REMARK  99  MacroMolecule created from Mol2 file
REMARK  99  CHEMBL3751930
REMARK  99  PROTEIN
REMARK  99  GASTEIGER
REMARK  99
REMARK  99

$$$$
CHEMBL4555407
  SciTegic05292516403D

 55 58  0  0  0  0            999 V2000
   20.3595  -10.9713    0.6002 C   0  0
   20.4635  -11.9078   -0.4265 C   0  0
   21.6862  -12.1359   -1.0710 C   0  0
   21.4664  -10.2050    0.9856 C   0  0
   22.7120  -10.4261    0.3597 C   0  0
   22.7974  -11.3851   -0.6499 C   0  0
   24.1261  -11.3678   -1.0245 N   0  0
   24.7724  -10.3979   -0.2821 C   0  0
   23.9397   -9.8445    0.5757 N   0  0
   24.7400  -12.2300   -2.0287 C   0  0
   25.7217  -13.2206   -1.4420 C   0  0
   25.4523  -13.9073   -0.2507 C   0  0
   26.3751  -14.8175    0.2708 C   0  0
   27.5837  -15.0884   -0.3906 C   0  0
   27.8335  -14.4286   -1.6022 C   0  0
   26.9160  -13.5063   -2.1206 C   0  0
   28.5376  -16.0607    0.1712 C   0  0
   28.0952  -17.3897    0.3530 C   0  0
   28.9353  -18.3829    0.8599 C   0  0
   30.2493  -18.0783    1.1874 C   0  0
   30.7177  -16.7783    1.0120 C   0  0
   29.8737  -15.7644    0.5202 C   0  0
   30.5068  -14.4215    0.4165 C   0  0
   29.7699  -13.3324    0.7858 N   0  0
   31.6788  -14.3026    0.0715 O   0  0
   26.2277  -10.0702   -0.4234 C   0  0
   26.5881   -8.7269    0.2138 C   0  0
   28.0650   -8.4090    0.0396 C   0  0
   21.2610   -9.3208    2.0306 O   0  0
   21.5661   -7.9797    1.6466 C   0  0
   19.4063  -10.8196    1.1014 H   0  0
   19.5794  -12.4716   -0.7226 H   0  0
   21.7603  -12.8788   -1.8581 H   0  0
   23.9549  -12.7739   -2.5625 H   0  0
   25.2272  -11.5647   -2.7509 H   0  0
   24.5268  -13.7352    0.2975 H   0  0
   26.1403  -15.3173    1.2098 H   0  0
   28.7517  -14.6303   -2.1545 H   0  0
   27.1500  -13.0127   -3.0623 H   0  0
   27.0768  -17.6671    0.0824 H   0  0
   28.5573  -19.3930    0.9901 H   0  0
   30.9092  -18.8454    1.5800 H   0  0
   31.7493  -16.5444    1.2713 H   0  0
   28.8171  -13.3829    1.1179 H   0  0
   30.2366  -12.4352    0.7599 H   0  0
   26.8175  -10.8644    0.0491 H   0  0
   26.4991  -10.0417   -1.4849 H   0  0
   25.9912   -7.9244   -0.2365 H   0  0
   26.3499   -8.7399    1.2844 H   0  0
   28.3031   -7.4471    0.5043 H   0  0
   28.3310   -8.3491   -1.0206 H   0  0
   28.6892   -9.1767    0.5080 H   0  0
   21.0958   -7.3097    2.3727 H   0  0
   21.1665   -7.7379    0.6551 H   0  0
   22.6457   -7.8054    1.6797 H   0  0
  1  2  2  0
  1 31  1  0
  2  3  1  0
  2 32  1  0
  3  6  2  0
  3 33  1  0
  4  1  1  0
  4 29  1  0
  5  4  2  0
  5  6  1  0
  6  7  1  0
  7  8  1  0
  7 10  1  0
  8  9  2  0
  8 26  1  0
  9  5  1  0
 10 11  1  0
 10 34  1  0
 10 35  1  0
 11 12  2  0
 12 13  1  0
 12 36  1  0
 13 14  2  0
 13 37  1  0
 14 15  1  0
 14 17  1  0
 15 16  2  0
 15 38  1  0
 16 11  1  0
 16 39  1  0
 17 18  2  0
 18 19  1  0
 18 40  1  0
 19 20  2  0
 19 41  1  0
 20 21  1  0
 20 42  1  0
 21 22  2  0
 21 43  1  0
 22 17  1  0
 22 23  1  0
 23 24  1  0
 23 25  2  0
 24 44  1  0
 24 45  1  0
 26 27  1  0
 26 46  1  0
 26 47  1  0
 27 28  1  0
 27 48  1  0
 27 49  1  0
 28 50  1  0
 28 51  1  0
 28 52  1  0
 29 30  1  0
 30 53  1  0
 30 54  1  0
 30 55  1  0
M  END
> <Name>
CHEMBL4555407

> <Clean Energy>
50.740002

> <chembl_id>
CHEMBL4555407

> <chembl_pref_name>
None

> <efficacy>
0.126305793

> <Forcefield>
MMFF

> <ForcefieldBase>
MMFF

> <ForcefieldFFML>
<?xml version="1.0" encoding="UTF-8"?>
<!DOCTYPE ffml SYSTEM "Ffml.dtd">
<ffml version="1.0">
<forcefield name="MMFF" derivedFrom="MMFF" base="MMFF">
<atomTypes>
<atomType
name="C100"
element="C"
mass="12.011"
annotation=""/>
<atomType
name="N101"
element="N"
mass="14.007"
annotation=""/>
<atomType
name="O102"
element="O"
mass="16"
annotation=""/>
<atomType
name="H103"
element="H"
mass="1.008"
annotation=""/>
</atomTypes>
<parameters>
</parameters>
</forcefield>
</ffml>

> <Initial Potential Energy>
249.02924

> <Initial RMS Gradient>
36.66707

> <Minimization Criteria>
CONJUG> Minimization exiting with gradient tolerance ( 0.0100000) satisfied.

> <CHARMm Energy>
78.77456

> <Potential Energy>
78.77456

> <RMS Gradient>
0.00987

> <Bond Energy>
7.4292

> <Angle Energy>
10.80238

> <STRBend>
0.07463

> <Dihedral Energy>
11.31815

> <OOPLane>
0.12999

> <Van der Waals Energy>
57.6392

> <Electrostatic Energy>
-8.61898

> <Hydrogen Bond Energy>
0

> <Solvation Free Energy>
0

> <HasGasteigerCharges>
true

> <REMARK99>
REMARK  99  MacroMolecule created from Mol2 file
REMARK  99  CHEMBL4555407
REMARK  99  PROTEIN
REMARK  99  GASTEIGER
REMARK  99
REMARK  99

$$$$
CHEMBL4474657
  SciTegic05292516403D

 54 57  0  0  0  0            999 V2000
   10.9700  -10.8147    0.4764 C   0  0
   11.1725  -12.0291   -0.1801 C   0  0
   12.4352  -12.3860   -0.6559 C   0  0
   12.0195   -9.8960    0.6943 C   0  0
   13.2975  -10.2658    0.2208 C   0  0
   13.4842  -11.4818   -0.4397 C   0  0
   14.8215  -11.4854   -0.7983 N   0  0
   15.3860  -10.3153   -0.3265 C   0  0
   14.4797   -9.5754    0.2832 N   0  0
   15.4496  -12.4265   -1.7254 C   0  0
   16.4946  -13.3491   -1.1322 C   0  0
   16.3040  -14.0308    0.0749 C   0  0
   17.2445  -14.9755    0.5205 C   0  0
   18.4000  -15.2752   -0.2249 C   0  0
   18.5892  -14.5878   -1.4311 C   0  0
   17.6519  -13.6427   -1.8765 C   0  0
   19.3573  -16.3091    0.2258 C   0  0
   18.9031  -17.6458    0.2993 C   0  0
   19.7488  -18.7011    0.6633 C   0  0
   21.0824  -18.4559    0.9575 C   0  0
   21.5612  -17.1496    0.8907 C   0  0
   20.7170  -16.0739    0.5369 C   0  0
   21.3906  -14.7438    0.5192 C   0  0
   20.6725  -13.6470    0.9081 N   0  0
   22.5740  -14.6349    0.2132 O   0  0
   16.8269   -9.9543   -0.5232 C   0  0
   17.1811   -8.5950    0.0822 C   0  0
   18.6490   -8.2584   -0.1294 C   0  0
   11.7411   -8.5737    1.3681 C   0  0
   11.5506   -7.5538    0.4840 F   0  0
   12.7435   -8.1845    2.2048 F   0  0
   10.6112   -8.5960    2.1388 F   0  0
    9.9664  -10.5704    0.8247 H   0  0
   10.3267  -12.6994   -0.3315 H   0  0
   12.5818  -13.3271   -1.1750 H   0  0
   14.6653  -13.0358   -2.1867 H   0  0
   15.8826  -11.8148   -2.5265 H   0  0
   15.4130  -13.8560    0.6764 H   0  0
   17.0572  -15.4933    1.4608 H   0  0
   19.4647  -14.7962   -2.0468 H   0  0
   17.8302  -13.1538   -2.8335 H   0  0
   17.8762  -17.8964    0.0395 H   0  0
   19.3560  -19.7133    0.7025 H   0  0
   21.7475  -19.2709    1.2331 H   0  0
   22.6067  -16.9537    1.1222 H   0  0
   19.7042  -13.6647    1.1999 H   0  0
   21.1623  -12.7617    0.9187 H   0  0
   17.4545  -10.7263   -0.0627 H   0  0
   17.0523   -9.9393   -1.5961 H   0  0
   16.5644   -7.8085   -0.3697 H   0  0
   16.9644   -8.5929    1.1575 H   0  0
   18.8816   -7.2836    0.3106 H   0  0
   18.8921   -8.2165   -1.1959 H   0  0
   19.2947   -9.0065    0.3415 H   0  0
  1  2  2  0
  1 33  1  0
  2  3  1  0
  2 34  1  0
  3  6  2  0
  3 35  1  0
  4  1  1  0
  4 29  1  0
  5  4  2  0
  5  6  1  0
  6  7  1  0
  7  8  1  0
  7 10  1  0
  8  9  2  0
  8 26  1  0
  9  5  1  0
 10 11  1  0
 10 36  1  0
 10 37  1  0
 11 12  2  0
 12 13  1  0
 12 38  1  0
 13 14  2  0
 13 39  1  0
 14 15  1  0
 14 17  1  0
 15 16  2  0
 15 40  1  0
 16 11  1  0
 16 41  1  0
 17 18  2  0
 18 19  1  0
 18 42  1  0
 19 20  2  0
 19 43  1  0
 20 21  1  0
 20 44  1  0
 21 22  2  0
 21 45  1  0
 22 17  1  0
 22 23  1  0
 23 24  1  0
 23 25  2  0
 24 46  1  0
 24 47  1  0
 26 27  1  0
 26 48  1  0
 26 49  1  0
 27 28  1  0
 27 50  1  0
 27 51  1  0
 28 52  1  0
 28 53  1  0
 28 54  1  0
 29 30  1  0
 29 31  1  0
 29 32  1  0
M  END
> <Name>
CHEMBL4474657

> <Clean Energy>
57.926201

> <chembl_id>
CHEMBL4474657

> <chembl_pref_name>
None

> <efficacy>
0.185185185

> <Forcefield>
MMFF

> <ForcefieldBase>
MMFF

> <ForcefieldFFML>
<?xml version="1.0" encoding="UTF-8"?>
<!DOCTYPE ffml SYSTEM "Ffml.dtd">
<ffml version="1.0">
<forcefield name="MMFF" derivedFrom="MMFF" base="MMFF">
<atomTypes>
<atomType
name="C100"
element="C"
mass="12.011"
annotation=""/>
<atomType
name="N101"
element="N"
mass="14.007"
annotation=""/>
<atomType
name="O102"
element="O"
mass="16"
annotation=""/>
<atomType
name="F103"
element="F"
mass="18.998"
annotation=""/>
<atomType
name="H104"
element="H"
mass="1.008"
annotation=""/>
</atomTypes>
<parameters>
</parameters>
</forcefield>
</ffml>

> <Initial Potential Energy>
225.55289

> <Initial RMS Gradient>
36.75985

> <Minimization Criteria>
STEEPD> Minimization exiting with gradient tolerance ( 3.0000000) satisfied.

> <CHARMm Energy>
65.9437

> <Potential Energy>
65.9437

> <RMS Gradient>
0.03164

> <Bond Energy>
8.73301

> <Angle Energy>
9.75397

> <STRBend>
-0.26805

> <Dihedral Energy>
6.55289

> <OOPLane>
0.23949

> <Van der Waals Energy>
53.7404

> <Electrostatic Energy>
-12.80801

> <Hydrogen Bond Energy>
0

> <Solvation Free Energy>
0

> <HasGasteigerCharges>
true

> <REMARK99>
REMARK  99  MacroMolecule created from Mol2 file
REMARK  99  CHEMBL4474657
REMARK  99  PROTEIN
REMARK  99  GASTEIGER
REMARK  99
REMARK  99

$$$$
CHEMBL2204698
  SciTegic05292516403D

 41 43  0  0  0  0            999 V2000
   29.2870  -16.8758   -0.0925 C   0  0
   27.7724  -16.7686    0.2379 C   0  0
   29.7724  -17.1200   -1.1901 O   0  0
   30.1083  -16.6761    0.9771 O   0  0
   27.5094  -15.3665    0.8210 C   0  0
   27.0734  -17.0126   -1.0075 O   0  0
   25.7752  -16.5908   -1.0684 C   0  0
   24.7372  -17.3713   -0.5681 C   0  0
   23.4223  -16.9049   -0.6350 C   0  0
   23.1349  -15.6647   -1.2241 C   0  0
   24.1843  -14.9221   -1.7852 C   0  0
   25.4979  -15.3893   -1.7158 C   0  0
   21.7122  -15.1650   -1.3229 C   0  0
   21.0584  -15.3052   -0.0642 O   0  0
   18.8795  -14.1349   -1.2329 S   0  0
   19.7790  -14.9214    0.0070 C   0  0
   19.1044  -15.1428    1.1149 N   0  0
   17.8038  -14.6799    0.9996 C   0  0
   17.4896  -14.0902   -0.2239 C   0  0
   16.8086  -14.7567    1.9935 C   0  0
   15.5343  -14.2431    1.7376 C   0  0
   15.2427  -13.6590    0.5091 C   0  0
   16.2124  -13.5713   -0.4932 C   0  0
   27.4282  -17.8747    1.2468 C   0  0
   29.6374  -16.4887    1.8105 H   0  0
   26.4567  -15.2267    1.0896 H   0  0
   27.7685  -14.5891    0.0929 H   0  0
   28.0894  -15.1734    1.7285 H   0  0
   24.9378  -18.3446   -0.1314 H   0  0
   22.6196  -17.5157   -0.2257 H   0  0
   23.9920  -13.9742   -2.2831 H   0  0
   26.3034  -14.8092   -2.1565 H   0  0
   21.7251  -14.1074   -1.6146 H   0  0
   21.2000  -15.7543   -2.0942 H   0  0
   17.0393  -15.2152    2.9500 H   0  0
   14.7681  -14.3022    2.5070 H   0  0
   14.2472  -13.2640    0.3232 H   0  0
   15.9817  -13.1145   -1.4509 H   0  0
   26.4016  -17.7778    1.6131 H   0  0
   28.0789  -17.8613    2.1264 H   0  0
   27.5145  -18.8630    0.7808 H   0  0
  1  2  1  0
  1  3  2  0
  1  4  1  0
  2  5  1  0
  2  6  1  0
  2 24  1  0
  4 25  1  0
  5 26  1  0
  5 27  1  0
  5 28  1  0
  6  7  1  0
  7  8  1  0
  7 12  2  0
  8  9  2  0
  8 29  1  0
  9 10  1  0
  9 30  1  0
 10 11  2  0
 10 13  1  0
 11 12  1  0
 11 31  1  0
 12 32  1  0
 13 14  1  0
 13 33  1  0
 13 34  1  0
 14 16  1  0
 15 16  1  0
 15 19  1  0
 16 17  2  0
 17 18  1  0
 18 19  1  0
 18 20  2  0
 19 23  2  0
 20 21  1  0
 20 35  1  0
 21 22  2  0
 21 36  1  0
 22 23  1  0
 22 37  1  0
 23 38  1  0
 24 39  1  0
 24 40  1  0
 24 41  1  0
M  END
> <Name>
CHEMBL2204698

> <Clean Energy>
42.0881

> <chembl_id>
CHEMBL2204698

> <chembl_pref_name>
None

> <efficacy>
0.332383666

> <Forcefield>
MMFF

> <ForcefieldBase>
MMFF

> <ForcefieldFFML>
<?xml version="1.0" encoding="UTF-8"?>
<!DOCTYPE ffml SYSTEM "Ffml.dtd">
<ffml version="1.0">
<forcefield name="MMFF" derivedFrom="MMFF" base="MMFF">
<atomTypes>
<atomType
name="C100"
element="C"
mass="12.011"
annotation=""/>
<atomType
name="O101"
element="O"
mass="16"
annotation=""/>
<atomType
name="S102"
element="S"
mass="32.066"
annotation=""/>
<atomType
name="N103"
element="N"
mass="14.007"
annotation=""/>
<atomType
name="H104"
element="H"
mass="1.008"
annotation=""/>
</atomTypes>
<parameters>
</parameters>
</forcefield>
</ffml>

> <Initial Potential Energy>
127.96043

> <Initial RMS Gradient>
31.8248

> <Minimization Criteria>
STEEPD> Minimization exiting with gradient tolerance ( 3.0000000) satisfied.

> <CHARMm Energy>
60.47492

> <Potential Energy>
60.47492

> <RMS Gradient>
0.07301

> <Bond Energy>
5.20627

> <Angle Energy>
13.06921

> <STRBend>
0.12759

> <Dihedral Energy>
8.20988

> <OOPLane>
0.05502

> <Van der Waals Energy>
45.08841

> <Electrostatic Energy>
-11.28146

> <Hydrogen Bond Energy>
0

> <Solvation Free Energy>
0

> <HasGasteigerCharges>
true

> <REMARK99>
REMARK  99  MacroMolecule created from Mol2 file
REMARK  99  CHEMBL2204698
REMARK  99  PROTEIN
REMARK  99  GASTEIGER
REMARK  99
REMARK  99

$$$$
CHEMBL4071373
  SciTegic05292516403D

 48 50  0  0  0  0            999 V2000
   44.9518  -19.5838   -2.1415 O   0  0
   44.7295  -19.8066   -0.7256 S   0  0
   45.8032  -20.1515    0.1858 O   0  0
   40.3664  -16.5273   -0.7104 C   0  0
   40.6296  -17.6415   -1.5143 C   0  0
   41.8403  -18.3367   -1.4317 C   0  0
   41.3360  -16.0918    0.2053 C   0  0
   42.5710  -16.7577    0.2843 C   0  0
   42.8016  -17.8815   -0.5150 C   0  0
   44.0609  -18.3376   -0.1639 N   0  0
   44.7336  -17.3692    0.5619 C   0  0
   43.7623  -16.4881    1.0030 C   0  0
   43.4804  -21.0480   -0.5183 C   0  0
   42.7815  -21.1425    0.6893 C   0  0
   41.7815  -22.1045    0.8181 C   0  0
   41.5308  -23.0032   -0.2211 C   0  0
   42.2455  -22.9186   -1.4169 C   0  0
   43.2218  -21.9357   -1.5708 C   0  0
   46.2142  -17.2995    0.7699 C   0  0
   46.7247  -15.8751    0.5114 C   0  0
   48.2389  -15.8042    0.5707 C   0  0
   39.0597  -15.7866   -0.8079 C   0  0
   48.7114  -14.4115    0.2573 C   0  0
   48.9121  -13.5485    1.0992 O   0  0
   48.9535  -14.1956   -1.0589 O   0  0
   38.3663  -16.0531   -1.9531 F   0  0
   38.2092  -16.0980    0.2110 F   0  0
   39.2101  -14.4334   -0.7712 F   0  0
   41.1280  -22.1838    2.0166 O   0  0
   39.7209  -21.9568    1.8934 C   0  0
   39.1944  -21.8215    3.1289 F   0  0
   39.1043  -22.9827    1.2738 F   0  0
   39.5038  -20.8083    1.2105 F   0  0
   39.8856  -17.9773   -2.2350 H   0  0
   42.0174  -19.1822   -2.0901 H   0  0
   41.1528  -15.2137    0.8225 H   0  0
   43.9282  -15.6405    1.6581 H   0  0
   43.0024  -20.4801    1.5226 H   0  0
   40.7940  -23.7967   -0.1093 H   0  0
   42.0410  -23.6300   -2.2171 H   0  0
   43.7836  -21.8683   -2.5010 H   0  0
   46.4584  -17.6136    1.7910 H   0  0
   46.7429  -17.9612    0.0787 H   0  0
   46.3807  -15.5290   -0.4726 H   0  0
   46.3017  -15.1780    1.2461 H   0  0
   48.6049  -16.0706    1.5692 H   0  0
   48.7065  -16.5100   -0.1255 H   0  0
   48.5661  -14.9101   -1.6059 H   0  0
  2  1  2  0
  2 13  1  0
  3  2  2  0
  4  5  2  0
  4 22  1  0
  5  6  1  0
  5 34  1  0
  6  9  2  0
  6 35  1  0
  7  4  1  0
  7 36  1  0
  8  7  2  0
  8  9  1  0
  9 10  1  0
 10  2  1  0
 10 11  1  0
 11 12  2  0
 11 19  1  0
 12  8  1  0
 12 37  1  0
 13 14  2  0
 14 15  1  0
 14 38  1  0
 15 16  2  0
 15 29  1  0
 16 17  1  0
 16 39  1  0
 17 18  2  0
 17 40  1  0
 18 13  1  0
 18 41  1  0
 19 20  1  0
 19 42  1  0
 19 43  1  0
 20 21  1  0
 20 44  1  0
 20 45  1  0
 21 23  1  0
 21 46  1  0
 21 47  1  0
 22 26  1  0
 22 27  1  0
 22 28  1  0
 23 24  2  0
 23 25  1  0
 25 48  1  0
 29 30  1  0
 30 31  1  0
 30 32  1  0
 30 33  1  0
M  END
> <Name>
CHEMBL4071373

> <Clean Energy>
51.0084

> <chembl_id>
CHEMBL4071373

> <chembl_pref_name>
None

> <efficacy>
0.39

> <Forcefield>
MMFF

> <ForcefieldBase>
MMFF

> <ForcefieldFFML>
<?xml version="1.0" encoding="UTF-8"?>
<!DOCTYPE ffml SYSTEM "Ffml.dtd">
<ffml version="1.0">
<forcefield name="MMFF" derivedFrom="MMFF" base="MMFF">
<atomTypes>
<atomType
name="O100"
element="O"
mass="16"
annotation=""/>
<atomType
name="S101"
element="S"
mass="32.066"
annotation=""/>
<atomType
name="C102"
element="C"
mass="12.011"
annotation=""/>
<atomType
name="N103"
element="N"
mass="14.007"
annotation=""/>
<atomType
name="F104"
element="F"
mass="18.998"
annotation=""/>
<atomType
name="H105"
element="H"
mass="1.008"
annotation=""/>
</atomTypes>
<parameters>
</parameters>
</forcefield>
</ffml>

> <Initial Potential Energy>
418.03877

> <Initial RMS Gradient>
130.9996

> <Minimization Criteria>
CONJUG> Minimization exiting with gradient tolerance ( 0.0100000) satisfied.

> <CHARMm Energy>
118.06885

> <Potential Energy>
118.06885

> <RMS Gradient>
0.0096

> <Bond Energy>
4.28776

> <Angle Energy>
15.68846

> <STRBend>
0.1337

> <Dihedral Energy>
5.20502

> <OOPLane>
0.17601

> <Van der Waals Energy>
42.34995

> <Electrostatic Energy>
50.22794

> <Hydrogen Bond Energy>
0

> <Solvation Free Energy>
0

> <HasGasteigerCharges>
true

> <REMARK99>
REMARK  99  MacroMolecule created from Mol2 file
REMARK  99  CHEMBL4071373
REMARK  99  PROTEIN
REMARK  99  GASTEIGER
REMARK  99
REMARK  99

$$$$
CHEMBL3585573
  SciTegic05292516403D

 43 45  0  0  0  0            999 V2000
   -0.1579   -1.0513    0.9229 C   0  0
    0.1192    0.0830    0.1531 C   0  0
   -0.8565    1.0648   -0.0360 C   0  0
   -2.1302    0.9299    0.5363 C   0  0
   -2.4143   -0.2200    1.2833 C   0  0
   -1.4374   -1.2027    1.4719 C   0  0
    0.8828   -2.1180    1.0993 C   0  0
   -3.1801    1.9992    0.3307 C   0  0
   -4.1421    1.6547   -0.6957 N   0  0
   -5.4387    1.2640   -0.4464 C   0  0
   -6.1722    1.0217   -1.5468 C   0  0
   -5.2136    1.2722   -2.9904 S   0  0
   -3.8072    1.7646   -2.0342 C   0  0
   -5.8645    1.2018    0.8493 O   0  0
   -2.7633    2.1518   -2.5326 O   0  0
   -7.6268    0.6810   -1.6525 C   0  0
   -7.9947   -0.6785   -1.0957 C   0  0
   -8.6220   -0.8195    0.1567 C   0  0
   -8.9770   -2.0899    0.6230 C   0  0
   -8.7157   -3.2233   -0.1513 C   0  0
   -8.0840   -3.0878   -1.3843 C   0  0
   -7.7226   -1.8279   -1.8583 C   0  0
   -8.7952    0.3322    0.8827 O   0  0
   -9.9036    0.3321    1.7828 C   0  0
   -7.7149   -4.6225   -2.4235 Br  0  0
    1.0970    0.2103   -0.3087 H   0  0
   -0.6173    1.9343   -0.6465 H   0  0
   -3.4012   -0.3580    1.7200 H   0  0
   -1.6835   -2.0897    2.0513 H   0  0
    0.7390   -2.6508    2.0451 H   0  0
    1.8877   -1.6831    1.1204 H   0  0
    0.8237   -2.8366    0.2761 H   0  0
   -3.6807    2.2144    1.2822 H   0  0
   -2.6879    2.9342    0.0323 H   0  0
   -6.7957    0.9077    0.8586 H   0  0
   -8.2125    1.4723   -1.1678 H   0  0
   -7.9579    0.7142   -2.6998 H   0  0
   -9.4482   -2.2311    1.5913 H   0  0
   -9.0043   -4.2043    0.2201 H   0  0
   -7.2325   -1.7322   -2.8255 H   0  0
  -10.0923    1.3693    2.0760 H   0  0
   -9.6628   -0.2321    2.6891 H   0  0
  -10.8119   -0.0524    1.3064 H   0  0
  1  2  2  0
  1  7  1  0
  2  3  1  0
  2 26  1  0
  3  4  2  0
  3 27  1  0
  4  5  1  0
  4  8  1  0
  5  6  2  0
  5 28  1  0
  6  1  1  0
  6 29  1  0
  7 30  1  0
  7 31  1  0
  7 32  1  0
  8  9  1  0
  8 33  1  0
  8 34  1  0
  9 10  1  0
 10 11  2  0
 10 14  1  0
 11 12  1  0
 11 16  1  0
 12 13  1  0
 13  9  1  0
 13 15  2  0
 14 35  1  0
 16 17  1  0
 16 36  1  0
 16 37  1  0
 17 18  2  0
 18 19  1  0
 18 23  1  0
 19 20  2  0
 19 38  1  0
 20 21  1  0
 20 39  1  0
 21 22  2  0
 21 25  1  0
 22 17  1  0
 22 40  1  0
 23 24  1  0
 24 41  1  0
 24 42  1  0
 24 43  1  0
M  END
> <Name>
CHEMBL3585573

> <Clean Energy>
35.200199

> <chembl_id>
CHEMBL3585573

> <chembl_pref_name>
None

> <efficacy>
0.33

> <Forcefield>
MMFF

> <ForcefieldBase>
MMFF

> <ForcefieldFFML>
<?xml version="1.0" encoding="UTF-8"?>
<!DOCTYPE ffml SYSTEM "Ffml.dtd">
<ffml version="1.0">
<forcefield name="MMFF" derivedFrom="MMFF" base="MMFF">
<atomTypes>
<atomType
name="C100"
element="C"
mass="12.011"
annotation=""/>
<atomType
name="N101"
element="N"
mass="14.007"
annotation=""/>
<atomType
name="S102"
element="S"
mass="32.066"
annotation=""/>
<atomType
name="O103"
element="O"
mass="16"
annotation=""/>
<atomType
name="Br104"
element="Br"
mass="79.904"
annotation=""/>
<atomType
name="H105"
element="H"
mass="1.008"
annotation=""/>
</atomTypes>
<parameters>
</parameters>
</forcefield>
</ffml>

> <Initial Potential Energy>
163.53846

> <Initial RMS Gradient>
34.50231

> <Minimization Criteria>
STEEPD> Minimization exiting with gradient tolerance ( 3.0000000) satisfied.

> <CHARMm Energy>
13.06364

> <Potential Energy>
13.06364

> <RMS Gradient>
0.08806

> <Bond Energy>
4.57225

> <Angle Energy>
15.11321

> <STRBend>
-0.75799

> <Dihedral Energy>
1.89261

> <OOPLane>
0.08718

> <Van der Waals Energy>
43.87582

> <Electrostatic Energy>
-51.71944

> <Hydrogen Bond Energy>
0

> <Solvation Free Energy>
0

> <HasGasteigerCharges>
true

> <REMARK99>
REMARK  99  MacroMolecule created from Mol2 file
REMARK  99  CHEMBL3585573
REMARK  99  PROTEIN
REMARK  99  GASTEIGER
REMARK  99
REMARK  99

$$$$
CHEMBL3695775
  SciTegic05292516403D

 70 74  0  0  0  0            999 V2000
   -0.8667   -4.2902   -0.1196 C   0  0
    0.0944   -3.2259    0.2810 C   0  0
    1.2320   -3.3936    1.0475 C   0  0
    1.7416   -4.6399    1.6931 C   0  0
    1.8884   -2.1742    1.1025 N   0  0
    3.1873   -1.9283    1.7404 C   0  0
    4.3062   -2.8269    1.2536 C   0  0
    5.2508   -3.3226    2.1663 C   0  0
    6.2997   -4.1515    1.7428 C   0  0
    6.4340   -4.5036    0.3909 C   0  0
    5.4942   -3.9908   -0.5199 C   0  0
    4.4589   -3.1488   -0.1004 C   0  0
    7.5309   -5.3884   -0.0476 C   0  0
    7.6340   -6.6837    0.4946 C   0  0
    8.6504   -7.5603    0.1009 C   0  0
    9.5928   -7.1617   -0.8427 C   0  0
    9.5226   -5.8862   -1.3954 C   0  0
    8.4970   -5.0124   -1.0028 C   0  0
    8.4629   -3.6751   -1.6258 C   0  0
    8.6099   -2.6298   -1.0219 O   0  0
    8.1385   -3.7554   -2.9366 O   0  0
    1.0792   -1.1835    0.5610 C   0  0
    1.2229    0.2183    0.4919 C   0  0
    0.1776    0.9722   -0.0596 C   0  0
   -0.9686    0.3496   -0.5526 C   0  0
   -1.0681   -1.0499   -0.5505 C   0  0
   -0.0475   -1.8257    0.0406 C   0  0
   -2.1051    1.1930   -1.0231 C   0  0
   -1.9467    2.3109   -1.5017 O   0  0
   -3.3609    0.6619   -0.8109 N   0  0
   -4.5430    1.3876   -1.1980 C   0  0
   -5.7888    0.6357   -0.8069 C   0  0
   -6.4975    0.9896    0.3516 C   0  0
   -7.6549    0.2980    0.7121 C   0  0
   -8.1033   -0.7542   -0.0881 C   0  0
   -7.3926   -1.1397   -1.2286 C   0  0
   -6.2346   -0.4467   -1.5827 C   0  0
   -9.6042   -1.5885    0.3112 S   0  0
  -10.2832   -0.9219    1.4021 O   0  0
   -9.4043   -3.0179    0.2804 O   0  0
  -10.5715   -1.2442   -1.0292 N   0  0
   -1.3983   -4.0185   -1.0369 H   0  0
   -1.6047   -4.4513    0.6725 H   0  0
   -0.3494   -5.2362   -0.3095 H   0  0
    2.2358   -4.4293    2.6460 H   0  0
    2.4415   -5.1592    1.0321 H   0  0
    0.9167   -5.3267    1.9106 H   0  0
    3.4813   -0.8900    1.5636 H   0  0
    3.0157   -2.0562    2.8159 H   0  0
    5.1825   -3.0661    3.2217 H   0  0
    7.0253   -4.5097    2.4744 H   0  0
    5.5623   -4.2356   -1.5777 H   0  0
    3.7607   -2.7633   -0.8426 H   0  0
    6.9100   -7.0263    1.2328 H   0  0
    8.7050   -8.5548    0.5382 H   0  0
   10.3849   -7.8433   -1.1388 H   0  0
   10.2733   -5.5664   -2.1144 H   0  0
    8.0921   -4.6696   -3.2798 H   0  0
    2.1018    0.7217    0.8862 H   0  0
    0.2228    2.0598   -0.0657 H   0  0
   -1.9371   -1.5490   -0.9654 H   0  0
   -3.4728   -0.1927   -0.2831 H   0  0
   -4.5190    2.3777   -0.7274 H   0  0
   -4.5181    1.5493   -2.2823 H   0  0
   -6.1604    1.8191    0.9712 H   0  0
   -8.2140    0.6009    1.5960 H   0  0
   -7.7575   -1.9545   -1.8517 H   0  0
   -5.6808   -0.7432   -2.4722 H   0  0
  -10.8093   -2.1155   -1.5024 H   0  0
  -11.3802   -0.6970   -0.7304 H   0  0
  1  2  1  0
  1 42  1  0
  1 43  1  0
  1 44  1  0
  2  3  2  0
  3  4  1  0
  3  5  1  0
  4 45  1  0
  4 46  1  0
  4 47  1  0
  5  6  1  0
  5 22  1  0
  6  7  1  0
  6 48  1  0
  6 49  1  0
  7  8  2  0
  8  9  1  0
  8 50  1  0
  9 10  2  0
  9 51  1  0
 10 11  1  0
 10 13  1  0
 11 12  2  0
 11 52  1  0
 12  7  1  0
 12 53  1  0
 13 14  2  0
 14 15  1  0
 14 54  1  0
 15 16  2  0
 15 55  1  0
 16 17  1  0
 16 56  1  0
 17 18  2  0
 17 57  1  0
 18 13  1  0
 18 19  1  0
 19 20  2  0
 19 21  1  0
 21 58  1  0
 22 23  2  0
 23 24  1  0
 23 59  1  0
 24 25  2  0
 24 60  1  0
 25 26  1  0
 25 28  1  0
 26 27  2  0
 26 61  1  0
 27  2  1  0
 27 22  1  0
 28 29  2  0
 28 30  1  0
 30 31  1  0
 30 62  1  0
 31 32  1  0
 31 63  1  0
 31 64  1  0
 32 33  2  0
 33 34  1  0
 33 65  1  0
 34 35  2  0
 34 66  1  0
 35 36  1  0
 35 38  1  0
 36 37  2  0
 36 67  1  0
 37 32  1  0
 37 68  1  0
 38 39  2  0
 38 40  2  0
 38 41  1  0
 41 69  1  0
 41 70  1  0
M  END
> <Name>
CHEMBL3695775

> <Clean Energy>
57.942001

> <chembl_id>
CHEMBL3695775

> <chembl_pref_name>
None

> <efficacy>
0

> <Forcefield>
MMFF

> <ForcefieldBase>
MMFF

> <ForcefieldFFML>
<?xml version="1.0" encoding="UTF-8"?>
<!DOCTYPE ffml SYSTEM "Ffml.dtd">
<ffml version="1.0">
<forcefield name="MMFF" derivedFrom="MMFF" base="MMFF">
<atomTypes>
<atomType
name="C100"
element="C"
mass="12.011"
annotation=""/>
<atomType
name="N101"
element="N"
mass="14.007"
annotation=""/>
<atomType
name="O102"
element="O"
mass="16"
annotation=""/>
<atomType
name="S103"
element="S"
mass="32.066"
annotation=""/>
<atomType
name="H104"
element="H"
mass="1.008"
annotation=""/>
</atomTypes>
<parameters>
</parameters>
</forcefield>
</ffml>

> <Initial Potential Energy>
486.88403

> <Initial RMS Gradient>
162.54422

> <Minimization Criteria>
CONJUG> Minimization exiting with gradient tolerance ( 0.0100000) satisfied.

> <CHARMm Energy>
5.07473

> <Potential Energy>
5.07473

> <RMS Gradient>
0.00949

> <Bond Energy>
9.96643

> <Angle Energy>
14.962

> <STRBend>
0.21134

> <Dihedral Energy>
3.33634

> <OOPLane>
0.40847

> <Van der Waals Energy>
76.99165

> <Electrostatic Energy>
-100.80148

> <Hydrogen Bond Energy>
0

> <Solvation Free Energy>
0

> <HasGasteigerCharges>
true

> <REMARK99>
REMARK  99  MacroMolecule created from Mol2 file
REMARK  99  CHEMBL3695775
REMARK  99  PROTEIN
REMARK  99  GASTEIGER
REMARK  99
REMARK  99

$$$$
CHEMBL4100336
  SciTegic05292516403D

 58 61  0  0  0  0            999 V2000
   -1.9210  -14.2326   -0.7724 C   0  0
   -2.2629  -15.5800   -0.6875 C   0  0
   -1.2747  -16.5297   -0.4371 C   0  0
    0.0566  -16.1317   -0.2719 C   0  0
    0.4218  -14.7793   -0.3541 C   0  0
   -0.5889  -13.8361   -0.6069 C   0  0
    1.8213  -14.3838   -0.1761 C   0  0
    2.8912  -15.1290    0.0431 N   0  0
    3.9387  -14.2191    0.1339 C   0  0
    3.4350  -12.9438   -0.0245 C   0  0
    2.0874  -13.0398   -0.2286 O   0  0
    5.3472  -14.6646    0.4055 C   0  0
    6.3216  -13.7105   -0.0501 O   0  0
    7.6432  -13.9945    0.1695 C   0  0
    8.1535  -15.1165    0.8203 C   0  0
    9.5442  -15.2665    0.9651 C   0  0
   10.4456  -14.3044    0.4736 C   0  0
    9.9154  -13.1912   -0.1885 C   0  0
    8.5311  -13.0379   -0.3298 C   0  0
   11.9398  -14.5518    0.6047 C   0  0
   12.8319  -13.3291    0.5644 C   0  0
   13.4855  -12.9611   -0.6217 C   0  0
   14.2738  -11.8069   -0.6768 C   0  0
   14.4012  -10.9988    0.4516 C   0  0
   13.7941  -11.3836    1.6476 C   0  0
   13.0056  -12.5344    1.7042 C   0  0
   15.1043   -9.8307    0.5160 O   0  0
   15.2053   -9.0625   -0.6802 C   0  0  1  0  0  0
   15.3274   -7.6022   -0.2526 C   0  0
   16.4113   -9.4009   -1.5623 C   0  0
   17.4242   -9.9775   -1.1949 O   0  0
   16.2696   -8.9704   -2.8453 O   0  0
    4.0163  -11.5902   -0.0169 C   0  0
   -2.6884  -13.4878   -0.9676 H   0  0
   -3.2974  -15.8895   -0.8163 H   0  0
   -1.5348  -17.5830   -0.3693 H   0  0
    0.8113  -16.8906   -0.0760 H   0  0
   -0.3467  -12.7775   -0.6782 H   0  0
    5.4481  -14.8042    1.4888 H   0  0
    5.5116  -15.6211   -0.1054 H   0  0
    7.5113  -15.8970    1.2222 H   0  0
    9.9256  -16.1551    1.4649 H   0  0
   10.5648  -12.4257   -0.6061 H   0  0
    8.1420  -12.1624   -0.8445 H   0  0
   12.1359  -15.0757    1.5501 H   0  0
   12.2377  -15.2459   -0.1921 H   0  0
   13.3659  -13.5710   -1.5153 H   0  0
   14.7880  -11.5800   -1.6049 H   0  0
   13.9187  -10.7712    2.5375 H   0  0
   12.5143  -12.7989    2.6380 H   0  0
   14.2861   -9.1706   -1.2712 H   0  0
   15.3775   -6.9308   -1.1157 H   0  0
   16.2282   -7.4470    0.3524 H   0  0
   14.4731   -7.3112    0.3682 H   0  0
   15.3947   -8.5786   -3.0370 H   0  0
    3.2370  -10.8236    0.0385 H   0  0
    4.5970  -11.4194   -0.9284 H   0  0
    4.6781  -11.4586    0.8446 H   0  0
  1  2  2  0
  1 34  1  0
  2  3  1  0
  2 35  1  0
  3  4  2  0
  3 36  1  0
  4  5  1  0
  4 37  1  0
  5  6  2  0
  5  7  1  0
  6  1  1  0
  6 38  1  0
  7  8  2  0
  8  9  1  0
  9 10  2  0
  9 12  1  0
 10 11  1  0
 10 33  1  0
 11  7  1  0
 12 13  1  0
 12 39  1  0
 12 40  1  0
 13 14  1  0
 14 15  2  0
 15 16  1  0
 15 41  1  0
 16 17  2  0
 16 42  1  0
 17 18  1  0
 17 20  1  0
 18 19  2  0
 18 43  1  0
 19 14  1  0
 19 44  1  0
 20 21  1  0
 20 45  1  0
 20 46  1  0
 21 22  2  0
 22 23  1  0
 22 47  1  0
 23 24  2  0
 23 48  1  0
 24 25  1  0
 24 27  1  0
 25 26  2  0
 25 49  1  0
 26 21  1  0
 26 50  1  0
 27 28  1  0
 28 29  1  0
 28 30  1  0
 28 51  1  0
 29 52  1  0
 29 53  1  0
 29 54  1  0
 30 31  2  0
 30 32  1  0
 32 55  1  0
 33 56  1  0
 33 57  1  0
 33 58  1  0
M  END
> <Name>
CHEMBL4100336

> <Clean Energy>
33.494202

> <chembl_id>
CHEMBL4100336

> <chembl_pref_name>
None

> <efficacy>
0.2

> <Forcefield>
MMFF

> <ForcefieldBase>
MMFF

> <ForcefieldFFML>
<?xml version="1.0" encoding="UTF-8"?>
<!DOCTYPE ffml SYSTEM "Ffml.dtd">
<ffml version="1.0">
<forcefield name="MMFF" derivedFrom="MMFF" base="MMFF">
<atomTypes>
<atomType
name="C100"
element="C"
mass="12.011"
annotation=""/>
<atomType
name="N101"
element="N"
mass="14.007"
annotation=""/>
<atomType
name="O102"
element="O"
mass="16"
annotation=""/>
<atomType
name="H103"
element="H"
mass="1.008"
annotation=""/>
</atomTypes>
<parameters>
</parameters>
</forcefield>
</ffml>

> <Initial Potential Energy>
199.86253

> <Initial RMS Gradient>
29.35855

> <Minimization Criteria>
CONJUG> Minimization exiting with gradient tolerance ( 0.0100000) satisfied.

> <CHARMm Energy>
110.81702

> <Potential Energy>
110.81702

> <RMS Gradient>
0.00942

> <Bond Energy>
6.92438

> <Angle Energy>
17.85991

> <STRBend>
-0.01503

> <Dihedral Energy>
-0.29456

> <OOPLane>
0.05114

> <Van der Waals Energy>
59.2698

> <Electrostatic Energy>
27.02139

> <Hydrogen Bond Energy>
0

> <Solvation Free Energy>
0

> <HasGasteigerCharges>
true

> <REMARK99>
REMARK  99  MacroMolecule created from Mol2 file
REMARK  99  CHEMBL4100336
REMARK  99  PROTEIN
REMARK  99  GASTEIGER
REMARK  99
REMARK  99

$$$$
CHEMBL2331780
  SciTegic05292516403D

 53 55  0  0  0  0            999 V2000
   26.8623  -21.9469   -0.3287 C   0  0
   25.7232  -21.3321    0.4025 C   0  0
   24.7148  -22.1239    0.9660 C   0  0
   23.6768  -21.5258    1.6934 C   0  0
   23.6078  -20.1383    1.7978 C   0  0
   24.5732  -19.3466    1.1789 C   0  0
   25.6374  -19.9327    0.4963 C   0  0
   26.7352  -22.9418   -1.0318 O   0  0
   28.0810  -21.3286   -0.1347 N   0  0
   29.2830  -21.8461   -0.7585 C   0  0
   30.3978  -20.8183   -0.7535 C   0  0
   23.7578  -17.1808   -0.1567 S   0  0
   24.4119  -17.9364    1.2116 N   0  0
   22.0727  -17.7403   -0.1188 C   0  0
   21.1283  -17.0626    0.6603 C   0  0
   19.8301  -17.5671    0.7585 C   0  0
   19.4977  -18.7406    0.0754 C   0  0
   20.4363  -19.4031   -0.7255 C   0  0
   21.7248  -18.8889   -0.8391 C   0  0
   24.7543  -23.4974    0.8569 O   0  0
   23.3132  -23.6545   -1.0941 C   0  0
   23.6858  -24.0477    0.1889 C   0  0
   22.9554  -25.0483    0.8219 C   0  0
   21.8456  -25.5757    0.1728 C   0  0
   21.5166  -25.0907   -1.0867 C   0  0
   22.2275  -24.1404   -1.7421 N   0  0
   20.8930  -26.7887    0.9257 Cl  0  0
   23.7647  -15.7598    0.1186 O   0  0
   24.3988  -17.7145   -1.3388 O   0  0
   17.8965  -19.4802    0.2909 S   0  0
   17.2365  -19.5734   -1.3527 C   0  0
   17.0619  -18.5565    1.0419 O   0  0
   18.1536  -20.8260    0.7677 O   0  0
   22.9120  -22.1356    2.1690 H   0  0
   22.7845  -19.6831    2.3438 H   0  0
   26.3662  -19.3028   -0.0080 H   0  0
   28.1836  -20.6111    0.5706 H   0  0
   29.5847  -22.7401   -0.2025 H   0  0
   29.0524  -22.1489   -1.7856 H   0  0
   31.2964  -21.2261   -1.2261 H   0  0
   30.6525  -20.5210    0.2693 H   0  0
   30.1003  -19.9164   -1.2985 H   0  0
   25.1404  -17.3715    1.6451 H   0  0
   21.4041  -16.1675    1.2135 H   0  0
   19.0994  -17.0620    1.3888 H   0  0
   20.1896  -20.3354   -1.2300 H   0  0
   22.4617  -19.4126   -1.4459 H   0  0
   23.8891  -22.9196   -1.6498 H   0  0
   23.2406  -25.3927    1.8105 H   0  0
   20.6482  -25.4590   -1.6238 H   0  0
   16.2270  -19.9858   -1.2863 H   0  0
   17.8589  -20.2297   -1.9625 H   0  0
   17.1967  -18.5682   -1.7768 H   0  0
  1  2  1  0
  1  8  2  0
  1  9  1  0
  2  3  1  0
  2  7  2  0
  3  4  2  0
  3 20  1  0
  4  5  1  0
  4 34  1  0
  5  6  2  0
  5 35  1  0
  6  7  1  0
  6 13  1  0
  7 36  1  0
  9 10  1  0
  9 37  1  0
 10 11  1  0
 10 38  1  0
 10 39  1  0
 11 40  1  0
 11 41  1  0
 11 42  1  0
 12 13  1  0
 12 14  1  0
 12 28  2  0
 12 29  2  0
 13 43  1  0
 14 15  1  0
 14 19  2  0
 15 16  2  0
 15 44  1  0
 16 17  1  0
 16 45  1  0
 17 18  2  0
 17 30  1  0
 18 19  1  0
 18 46  1  0
 19 47  1  0
 20 22  1  0
 21 22  1  0
 21 26  2  0
 21 48  1  0
 22 23  2  0
 23 24  1  0
 23 49  1  0
 24 25  2  0
 24 27  1  0
 25 26  1  0
 25 50  1  0
 30 31  1  0
 30 32  2  0
 30 33  2  0
 31 51  1  0
 31 52  1  0
 31 53  1  0
M  END
> <Name>
CHEMBL2331780

> <Clean Energy>
40.856201

> <chembl_id>
CHEMBL2331780

> <chembl_pref_name>
None

> <efficacy>
0

> <Forcefield>
MMFF

> <ForcefieldBase>
MMFF

> <ForcefieldFFML>
<?xml version="1.0" encoding="UTF-8"?>
<!DOCTYPE ffml SYSTEM "Ffml.dtd">
<ffml version="1.0">
<forcefield name="MMFF" derivedFrom="MMFF" base="MMFF">
<atomTypes>
<atomType
name="C100"
element="C"
mass="12.011"
annotation=""/>
<atomType
name="O101"
element="O"
mass="16"
annotation=""/>
<atomType
name="N102"
element="N"
mass="14.007"
annotation=""/>
<atomType
name="S103"
element="S"
mass="32.066"
annotation=""/>
<atomType
name="Cl104"
element="Cl"
mass="35.453"
annotation=""/>
<atomType
name="H105"
element="H"
mass="1.008"
annotation=""/>
</atomTypes>
<parameters>
</parameters>
</forcefield>
</ffml>

> <Initial Potential Energy>
646.99806

> <Initial RMS Gradient>
233.43032

> <Minimization Criteria>
CONJUG> Minimization exiting with gradient tolerance ( 0.0100000) satisfied.

> <CHARMm Energy>
42.58643

> <Potential Energy>
42.58643

> <RMS Gradient>
0.00905

> <Bond Energy>
4.124

> <Angle Energy>
11.40589

> <STRBend>
1.48785

> <Dihedral Energy>
10.96597

> <OOPLane>
0.19226

> <Van der Waals Energy>
56.12696

> <Electrostatic Energy>
-41.71651

> <Hydrogen Bond Energy>
0

> <Solvation Free Energy>
0

> <HasGasteigerCharges>
true

> <REMARK99>
REMARK  99  MacroMolecule created from Mol2 file
REMARK  99  CHEMBL2331780
REMARK  99  PROTEIN
REMARK  99  GASTEIGER
REMARK  99
REMARK  99

$$$$
CHEMBL3397560
  SciTegic05292516403D

 39 40  0  0  0  0            999 V2000
    1.7319   -3.3830    1.6918 C   0  0
    2.2186   -3.2583    0.2374 C   0  0  1  0  0  0
    2.5602   -1.7852   -0.0646 C   0  0
    2.3818   -3.8668    2.6083 O   0  0
    0.4722   -2.9233    1.9010 O   0  0
    1.3580   -0.9014   -0.2902 C   0  0
    0.9758    0.0348    0.6810 C   0  0
   -0.1545    0.8283    0.4896 C   0  0
   -0.9096    0.6969   -0.6741 C   0  0
   -0.5333   -0.2237   -1.6498 C   0  0
    0.5977   -1.0187   -1.4613 C   0  0
    3.4343   -3.9732   -0.0078 O   0  0
    3.4322   -5.3352   -0.0851 C   0  0
    4.7068   -5.8922   -0.2272 C   0  0
    4.8835   -7.2757   -0.3015 C   0  0
    3.7769   -8.1249   -0.2337 C   0  0
    2.4960   -7.5724   -0.1208 C   0  0
    2.3240   -6.1801   -0.0390 C   0  0
    3.9512   -9.6060   -0.2823 C   0  0
    5.1763  -10.1926    0.3935 C   0  0
    3.0674  -10.3380   -0.9011 N   0  0
    3.4173  -11.6965   -0.8745 O   0  0
    1.4388   -3.6202   -0.4427 H   0  0
    3.1834   -1.3752    0.7419 H   0  0
    3.1926   -1.7271   -0.9615 H   0  0
    0.0436   -2.4816    1.1398 H   0  0
    1.5520    0.1429    1.5986 H   0  0
   -0.4456    1.5542    1.2461 H   0  0
   -1.7873    1.3211   -0.8246 H   0  0
   -1.1178   -0.3194   -2.5620 H   0  0
    0.8857   -1.7198   -2.2423 H   0  0
    5.5762   -5.2395   -0.2703 H   0  0
    5.8893   -7.6689   -0.4195 H   0  0
    1.6262   -8.2248   -0.0746 H   0  0
    1.3138   -5.8022    0.0713 H   0  0
    4.8897  -11.0550    1.0030 H   0  0
    5.6585   -9.4750    1.0619 H   0  0
    5.8919  -10.5112   -0.3698 H   0  0
    2.7071  -12.1122   -1.3983 H   0  0
  1  2  1  0
  1  4  2  0
  1  5  1  0
  2  3  1  0
  2 12  1  0
  2 23  1  0
  3  6  1  0
  3 24  1  0
  3 25  1  0
  5 26  1  0
  6  7  1  0
  6 11  2  0
  7  8  2  0
  7 27  1  0
  8  9  1  0
  8 28  1  0
  9 10  2  0
  9 29  1  0
 10 11  1  0
 10 30  1  0
 11 31  1  0
 12 13  1  0
 13 14  1  0
 13 18  2  0
 14 15  2  0
 14 32  1  0
 15 16  1  0
 15 33  1  0
 16 17  2  0
 16 19  1  0
 17 18  1  0
 17 34  1  0
 18 35  1  0
 19 20  1  0
 19 21  2  0
 20 36  1  0
 20 37  1  0
 20 38  1  0
 21 22  1  0
 22 39  1  0
M  END
> <Name>
CHEMBL3397560

> <Clean Energy>
12.6507

> <chembl_id>
CHEMBL3397560

> <chembl_pref_name>
None

> <efficacy>
0.2

> <Forcefield>
MMFF

> <ForcefieldBase>
MMFF

> <ForcefieldFFML>
<?xml version="1.0" encoding="UTF-8"?>
<!DOCTYPE ffml SYSTEM "Ffml.dtd">
<ffml version="1.0">
<forcefield name="MMFF" derivedFrom="MMFF" base="MMFF">
<atomTypes>
<atomType
name="C100"
element="C"
mass="12.011"
annotation=""/>
<atomType
name="O101"
element="O"
mass="16"
annotation=""/>
<atomType
name="N102"
element="N"
mass="14.007"
annotation=""/>
<atomType
name="H103"
element="H"
mass="1.008"
annotation=""/>
</atomTypes>
<parameters>
</parameters>
</forcefield>
</ffml>

> <Initial Potential Energy>
151.83899

> <Initial RMS Gradient>
31.10233

> <Minimization Criteria>
CONJUG> Minimization exiting with gradient tolerance ( 0.0100000) satisfied.

> <CHARMm Energy>
88.02446

> <Potential Energy>
88.02446

> <RMS Gradient>
0.00917

> <Bond Energy>
4.61943

> <Angle Energy>
14.69345

> <STRBend>
0.63029

> <Dihedral Energy>
2.58523

> <OOPLane>
0.01524

> <Van der Waals Energy>
43.73677

> <Electrostatic Energy>
21.74406

> <Hydrogen Bond Energy>
0

> <Solvation Free Energy>
0

> <HasGasteigerCharges>
true

> <REMARK99>
REMARK  99  MacroMolecule created from Mol2 file
REMARK  99  CHEMBL3397560
REMARK  99  PROTEIN
REMARK  99  GASTEIGER
REMARK  99
REMARK  99

$$$$
CHEMBL2322442
  SciTegic05292516403D

 72 78  0  0  0  0            999 V2000
   37.3858  -11.5240   -0.6125 C   0  0
   38.5335  -10.7482   -0.9436 N   0  0
   38.5664   -9.3548   -0.8021 C   0  0
   37.5065   -8.6691   -0.3382 C   0  0
   36.2791  -10.7384   -0.1205 C   0  0
   36.3376   -9.3784    0.0139 C   0  0
   35.2176   -8.8465    0.5426 N   0  0
   34.4214   -9.8875    0.7586 C   0  0
   35.0204  -11.0749    0.3329 N   0  0
   33.0565   -9.7846    1.3719 C   0  0
   32.9201   -8.5660    2.2751 C   0  0
   34.5256  -12.4436    0.4247 C   0  0  1  0  0  0
   33.4498  -14.0606    1.9459 C   0  0
   34.5643  -13.0094    1.8591 C   0  0
   32.4840  -13.5837    0.9037 C   0  0
   33.0878  -12.6707    0.0296 C   0  0
   32.3941  -12.1850   -1.0671 C   0  0
   31.0682  -12.5929   -1.2535 C   0  0
   30.4409  -13.5005   -0.3683 C   0  0
   31.1715  -13.9983    0.7235 C   0  0
   29.0407  -13.9062   -0.5859 C   0  0
   28.0413  -12.9304   -0.3646 C   0  0
   26.6859  -13.2203   -0.5130 C   0  0
   26.2937  -14.4978   -0.8825 C   0  0
   27.2615  -15.4768   -1.1058 C   0  0
   28.6397  -15.2091   -0.9724 C   0  0
   29.5482  -16.3275   -1.2579 C   0  0
   30.8520  -16.2338   -1.6618 N   0  0
   31.3782  -17.4495   -1.8560 N   0  0
   30.3922  -18.2932   -1.5958 N   0  0
   29.2509  -17.6189   -1.2372 N   0  0
   37.3613  -12.7474   -0.7189 O   0  0
   39.7197  -11.4442   -1.4449 C   0  0
   40.5630  -12.0971   -0.3305 C   0  0
   41.2097  -11.0523    0.5941 C   0  0
   42.1126  -11.6988    1.6431 C   0  0
   43.1689  -12.5947    1.0064 C   0  0
   42.5355  -13.6408    0.0965 C   0  0
   41.6403  -12.9975   -0.9591 C   0  0
   39.4887   -8.8452   -1.0733 H   0  0
   37.5317   -7.5920   -0.2191 H   0  0
   32.3106   -9.7164    0.5728 H   0  0
   32.8260  -10.6687    1.9712 H   0  0
   31.9210   -8.5364    2.7215 H   0  0
   33.0659   -7.6359    1.7154 H   0  0
   33.6553   -8.5916    3.0867 H   0  0
   35.1187  -13.0786   -0.2388 H   0  0
   33.8256  -15.0539    1.6791 H   0  0
   33.0042  -14.0871    2.9443 H   0  0
   34.3762  -12.2242    2.6027 H   0  0
   35.5444  -13.4336    2.1042 H   0  0
   32.8600  -11.4969   -1.7680 H   0  0
   30.5146  -12.1975   -2.1051 H   0  0
   30.7189  -14.7030    1.4193 H   0  0
   28.3239  -11.9243   -0.0556 H   0  0
   25.9383  -12.4522   -0.3316 H   0  0
   25.2406  -14.7359   -0.9961 H   0  0
   26.9368  -16.4738   -1.3972 H   0  0
   31.4230  -15.4153   -1.8221 H   0  0
   39.3743  -12.2232   -2.1367 H   0  0
   40.3287  -10.7500   -2.0376 H   0  0
   39.9091  -12.7311    0.2832 H   0  0
   41.7984  -10.3424   -0.0007 H   0  0
   40.4375  -10.4729    1.1120 H   0  0
   42.6014  -10.9190    2.2381 H   0  0
   41.5005  -12.2908    2.3347 H   0  0
   43.8682  -11.9802    0.4263 H   0  0
   43.7530  -13.0911    1.7894 H   0  0
   43.3210  -14.2264   -0.3943 H   0  0
   41.9441  -14.3410    0.6992 H   0  0
   41.1657  -13.7866   -1.5547 H   0  0
   42.2607  -12.4095   -1.6478 H   0  0
  1  2  1  0
  1 32  2  0
  2  3  1  0
  2 33  1  0
  3  4  2  0
  3 40  1  0
  4  6  1  0
  4 41  1  0
  5  1  1  0
  5  6  2  0
  6  7  1  0
  7  8  2  0
  8  9  1  0
  8 10  1  0
  9  5  1  0
 10 11  1  0
 10 42  1  0
 10 43  1  0
 11 44  1  0
 11 45  1  0
 11 46  1  0
 12  9  1  0
 12 16  1  0
 12 47  1  0
 13 14  1  0
 13 48  1  0
 13 49  1  0
 14 12  1  0
 14 50  1  0
 14 51  1  0
 15 13  1  0
 15 16  2  0
 16 17  1  0
 17 18  2  0
 17 52  1  0
 18 19  1  0
 18 53  1  0
 19 20  2  0
 19 21  1  0
 20 15  1  0
 20 54  1  0
 21 22  2  0
 22 23  1  0
 22 55  1  0
 23 24  2  0
 23 56  1  0
 24 25  1  0
 24 57  1  0
 25 26  2  0
 25 58  1  0
 26 21  1  0
 26 27  1  0
 27 28  1  0
 28 29  1  0
 28 59  1  0
 29 30  2  0
 30 31  1  0
 31 27  2  0
 33 34  1  0
 33 60  1  0
 33 61  1  0
 34 35  1  0
 34 39  1  0
 34 62  1  0
 35 36  1  0
 35 63  1  0
 35 64  1  0
 36 37  1  0
 36 65  1  0
 36 66  1  0
 37 38  1  0
 37 67  1  0
 37 68  1  0
 38 39  1  0
 38 69  1  0
 38 70  1  0
 39 71  1  0
 39 72  1  0
M  END
> <Name>
CHEMBL2322442

> <Clean Energy>
103.208

> <chembl_id>
CHEMBL2322442

> <chembl_pref_name>
None

> <efficacy>
0.282608696

> <Forcefield>
MMFF

> <ForcefieldBase>
MMFF

> <ForcefieldFFML>
<?xml version="1.0" encoding="UTF-8"?>
<!DOCTYPE ffml SYSTEM "Ffml.dtd">
<ffml version="1.0">
<forcefield name="MMFF" derivedFrom="MMFF" base="MMFF">
<atomTypes>
<atomType
name="C100"
element="C"
mass="12.011"
annotation=""/>
<atomType
name="N101"
element="N"
mass="14.007"
annotation=""/>
<atomType
name="O102"
element="O"
mass="16"
annotation=""/>
<atomType
name="H103"
element="H"
mass="1.008"
annotation=""/>
</atomTypes>
<parameters>
</parameters>
</forcefield>
</ffml>

> <Initial Potential Energy>
201.59817

> <Initial RMS Gradient>
32.93588

> <Minimization Criteria>
CONJUG> Minimization exiting with gradient tolerance ( 0.0100000) satisfied.

> <CHARMm Energy>
49.01326

> <Potential Energy>
49.01326

> <RMS Gradient>
0.00961

> <Bond Energy>
10.50247

> <Angle Energy>
20.86935

> <STRBend>
-0.73238

> <Dihedral Energy>
-4.19002

> <OOPLane>
0.13192

> <Van der Waals Energy>
63.30831

> <Electrostatic Energy>
-40.87638

> <Hydrogen Bond Energy>
0

> <Solvation Free Energy>
0

> <HasGasteigerCharges>
true

> <REMARK99>
REMARK  99  MacroMolecule created from Mol2 file
REMARK  99  CHEMBL2322442
REMARK  99  PROTEIN
REMARK  99  GASTEIGER
REMARK  99
REMARK  99

$$$$
CHEMBL3597386
  SciTegic05292516403D

 56 59  0  0  0  0            999 V2000
   -1.6960    1.0556   -0.2118 C   0  0
   -1.6785   -0.3235   -0.0115 C   0  0
   -0.5492   -1.0989   -0.3061 C   0  0
   -0.5542    1.6930   -0.7039 C   0  0
    0.6067    0.9363   -1.0053 C   0  0
    0.5893   -0.4489   -0.8053 C   0  0
    1.8279   -0.9319   -1.1851 N   0  0
    2.6199    0.1073   -1.6114 C   0  0
    1.9062    1.2837   -1.4970 C   0  0
    2.4036    2.6586   -1.8184 C   0  0
    3.3726    3.2079   -0.7920 C   0  0
    3.1027    2.8988    0.4971 O   0  0
    4.3153    3.9317   -1.0894 O   0  0
   -2.8747    1.6685    0.1203 O   0  0
   -3.0363    3.0437   -0.2418 C   0  0
   -4.4511    3.4869    0.1374 C   0  0
   -4.6417    4.8512   -0.2498 O   0  0
   -5.8574    5.4169    0.0286 C   0  0
   -5.9963    6.7440   -0.3892 C   0  0
   -7.1790    7.4433   -0.1573 C   0  0
   -8.2374    6.8134    0.4934 C   0  0
   -8.1251    5.4801    0.9028 C   0  0
   -6.9242    4.7907    0.6772 C   0  0
   -9.2565    4.8121    1.6279 C   0  0
    2.2430   -2.3339   -1.2137 C   0  0
    3.0862   -2.6979   -0.0173 C   0  0
    4.4847   -2.6027   -0.0754 C   0  0
    5.2626   -2.9229    1.0377 C   0  0
    4.6547   -3.3447    2.2180 C   0  0
    3.2677   -3.4459    2.2890 C   0  0
    2.4867   -3.1209    1.1788 C   0  0
   -2.5657   -0.8190    0.3778 H   0  0
   -0.5744   -2.1713   -0.1462 H   0  0
   -0.5335    2.7645   -0.8647 H   0  0
    3.6339   -0.0737   -1.9503 H   0  0
    2.9218    2.6256   -2.7846 H   0  0
    1.5767    3.3699   -1.9132 H   0  0
    2.3127    2.3302    0.6087 H   0  0
   -2.3114    3.6692    0.2932 H   0  0
   -2.8913    3.1789   -1.3208 H   0  0
   -5.1766    2.8404   -0.3723 H   0  0
   -4.5780    3.3724    1.2212 H   0  0
   -5.1697    7.2376   -0.8949 H   0  0
   -7.2807    8.4765   -0.4806 H   0  0
   -9.1541    7.3687    0.6762 H   0  0
   -6.8516    3.7652    1.0220 H   0  0
   -9.2846    3.7408    1.4025 H   0  0
  -10.2203    5.2330    1.3226 H   0  0
   -9.1389    4.9450    2.7077 H   0  0
    1.3498   -2.9651   -1.2733 H   0  0
    2.7983   -2.4916   -2.1466 H   0  0
    4.9848   -2.2807   -0.9868 H   0  0
    6.3463   -2.8473    0.9840 H   0  0
    5.2651   -3.5993    3.0815 H   0  0
    2.7972   -3.7783    3.2111 H   0  0
    1.4049   -3.1974    1.2571 H   0  0
  1  2  2  0
  1 14  1  0
  2  3  1  0
  2 32  1  0
  3  6  2  0
  3 33  1  0
  4  1  1  0
  4 34  1  0
  5  4  2  0
  5  6  1  0
  6  7  1  0
  7  8  1  0
  7 25  1  0
  8  9  2  0
  8 35  1  0
  9  5  1  0
  9 10  1  0
 10 11  1  0
 10 36  1  0
 10 37  1  0
 11 12  1  0
 11 13  2  0
 12 38  1  0
 14 15  1  0
 15 16  1  0
 15 39  1  0
 15 40  1  0
 16 17  1  0
 16 41  1  0
 16 42  1  0
 17 18  1  0
 18 19  2  0
 19 20  1  0
 19 43  1  0
 20 21  2  0
 20 44  1  0
 21 22  1  0
 21 45  1  0
 22 23  2  0
 22 24  1  0
 23 18  1  0
 23 46  1  0
 24 47  1  0
 24 48  1  0
 24 49  1  0
 25 26  1  0
 25 50  1  0
 25 51  1  0
 26 27  2  0
 27 28  1  0
 27 52  1  0
 28 29  2  0
 28 53  1  0
 29 30  1  0
 29 54  1  0
 30 31  2  0
 30 55  1  0
 31 26  1  0
 31 56  1  0
M  END
> <Name>
CHEMBL3597386

> <Clean Energy>
29.4258

> <chembl_id>
CHEMBL3597386

> <chembl_pref_name>
None

> <efficacy>
0.365

> <Forcefield>
MMFF

> <ForcefieldBase>
MMFF

> <ForcefieldFFML>
<?xml version="1.0" encoding="UTF-8"?>
<!DOCTYPE ffml SYSTEM "Ffml.dtd">
<ffml version="1.0">
<forcefield name="MMFF" derivedFrom="MMFF" base="MMFF">
<atomTypes>
<atomType
name="C100"
element="C"
mass="12.011"
annotation=""/>
<atomType
name="N101"
element="N"
mass="14.007"
annotation=""/>
<atomType
name="O102"
element="O"
mass="16"
annotation=""/>
<atomType
name="H103"
element="H"
mass="1.008"
annotation=""/>
</atomTypes>
<parameters>
</parameters>
</forcefield>
</ffml>

> <Initial Potential Energy>
206.40705

> <Initial RMS Gradient>
33.74526

> <Minimization Criteria>
STEEPD> Minimization exiting with gradient tolerance ( 3.0000000) satisfied.

> <CHARMm Energy>
82.97449

> <Potential Energy>
82.97449

> <RMS Gradient>
0.05818

> <Bond Energy>
5.88543

> <Angle Energy>
17.59321

> <STRBend>
-0.33322

> <Dihedral Energy>
-1.97077

> <OOPLane>
0.07963

> <Van der Waals Energy>
59.05264

> <Electrostatic Energy>
2.66757

> <Hydrogen Bond Energy>
0

> <Solvation Free Energy>
0

> <HasGasteigerCharges>
true

> <REMARK99>
REMARK  99  MacroMolecule created from Mol2 file
REMARK  99  CHEMBL3597386
REMARK  99  PROTEIN
REMARK  99  GASTEIGER
REMARK  99
REMARK  99

$$$$
CHEMBL3398425
  SciTegic05292516403D

 66 70  0  0  0  0            999 V2000
    8.8406   -1.2593   -0.3983 C   0  0
   10.2259   -1.4102   -0.3577 C   0  0
    1.7022   -0.5717   -0.2070 C   0  0
    1.8498    0.7606    0.2200 C   0  0
    6.1889   -4.8163   -0.3213 C   0  0
    8.0237   -2.4006   -0.4352 C   0  0
    6.8641   -7.0777    0.1379 C   0  0
    0.4787   -1.2362   -0.0718 C   0  0
    8.0820   -6.1700    0.2953 C   0  0  2  0  0  0
    3.1355    1.4315    0.0665 C   0  0
    8.2677   -5.8838    1.7707 C   0  0
    5.1914    1.9601   -0.1608 C   0  0
    3.5153   -5.8218   -0.5001 O   0  0
    5.7517   -6.1922   -0.1527 N   0  0
    8.5730   -3.6964   -0.4305 C   0  0
   10.7934   -2.6819   -0.3587 C   0  0
    7.6593   -5.0277    2.3952 O   0  0
    6.9914    0.2301   -0.3451 C   0  0
    9.1552   -6.7186    2.3708 O   0  0
    9.9742   -3.8135   -0.4039 C   0  0
    3.0556   -8.6078   -0.1679 C   0  0
    4.3110   -7.9735   -0.0901 O   0  0
    6.6531    1.7245   -0.3237 C   0  0
    7.7080   -4.9355   -0.5605 C   0  0  2  0  0  0
    4.3153    0.8992   -0.1731 N   0  0
   -0.4555    0.7215    0.9731 C   0  0
    0.7546    1.3997    0.8129 C   0  0
    4.8203    4.5606    0.1239 C   0  0
    4.4834    3.1287    0.0340 C   0  0
    8.4076    0.0451   -0.4170 O   0  0
   -0.6025   -0.5859    0.5171 C   0  0
    3.1625    2.7980    0.1891 O   0  0
    4.4369   -6.5931   -0.2601 C   0  0
    3.0046   -9.7880   -0.9126 C   0  0
    1.8151  -10.5129   -0.9751 C   0  0
    0.6903  -10.0601   -0.2837 C   0  0
    0.7542   -8.8844    0.4702 C   0  0
    1.9427   -8.1562    0.5371 C   0  0
   10.8627   -0.5296   -0.3286 H   0  0
    2.5436   -1.0932   -0.6600 H   0  0
    5.6622   -4.3487   -1.1598 H   0  0
    5.9396   -4.2678    0.5933 H   0  0
    6.9461   -2.2870   -0.4815 H   0  0
    6.9836   -7.7470   -0.7219 H   0  0
    6.6402   -7.6861    1.0208 H   0  0
    0.3684   -2.2587   -0.4240 H   0  0
    8.9902   -6.6475   -0.0888 H   0  0
   11.8743   -2.7884   -0.3336 H   0  0
    6.5168   -0.2269   -1.2232 H   0  0
    6.6096   -0.2405    0.5707 H   0  0
    9.6220   -7.3668    1.8078 H   0  0
   10.4497   -4.7894   -0.4339 H   0  0
    7.0062    2.1930   -1.2501 H   0  0
    7.2007    2.2092    0.4936 H   0  0
    7.8219   -5.2440   -1.6128 H   0  0
   -1.2918    1.2151    1.4545 H   0  0
    0.8328    2.4268    1.1646 H   0  0
    4.5571    4.9542    1.1103 H   0  0
    4.2736    5.1309   -0.6332 H   0  0
    5.8907    4.7242   -0.0339 H   0  0
   -1.5626   -1.0855    0.6257 H   0  0
    3.8874  -10.1307   -1.4430 H   0  0
    1.7641  -11.4251   -1.5617 H   0  0
   -0.2402  -10.6180   -0.3304 H   0  0
   -0.1243   -8.5412    1.0106 H   0  0
    1.9864   -7.2509    1.1352 H   0  0
  1  6  2  0
  2  1  1  0
  2 39  1  0
  3  8  1  0
  3 40  1  0
  4  3  2  0
  5 14  1  0
  5 41  1  0
  5 42  1  0
  6 15  1  0
  6 43  1  0
  7  9  1  0
  7 44  1  0
  7 45  1  0
  8 31  2  0
  8 46  1  0
  9 11  1  0
  9 24  1  0
  9 47  1  0
 10  4  1  0
 10 25  2  0
 11 17  2  0
 11 19  1  0
 12 23  1  0
 12 29  2  0
 14  7  1  0
 14 33  1  0
 15 20  2  0
 16  2  2  0
 16 48  1  0
 18 30  1  0
 18 49  1  0
 18 50  1  0
 19 51  1  0
 20 16  1  0
 20 52  1  0
 21 34  2  0
 22 21  1  0
 23 18  1  0
 23 53  1  0
 23 54  1  0
 24  5  1  0
 24 15  1  0
 24 55  1  0
 25 12  1  0
 26 27  2  0
 26 56  1  0
 27  4  1  0
 27 57  1  0
 28 58  1  0
 28 59  1  0
 28 60  1  0
 29 28  1  0
 29 32  1  0
 30  1  1  0
 31 26  1  0
 31 61  1  0
 32 10  1  0
 33 13  2  0
 33 22  1  0
 34 35  1  0
 34 62  1  0
 35 36  2  0
 35 63  1  0
 36 37  1  0
 36 64  1  0
 37 38  2  0
 37 65  1  0
 38 21  1  0
 38 66  1  0
M  END
> <Name>
CHEMBL3398425

> <Clean Energy>
67.153999

> <chembl_id>
CHEMBL3398425

> <chembl_pref_name>
None

> <efficacy>
0.35

> <Forcefield>
MMFF

> <ForcefieldBase>
MMFF

> <ForcefieldFFML>
<?xml version="1.0" encoding="UTF-8"?>
<!DOCTYPE ffml SYSTEM "Ffml.dtd">
<ffml version="1.0">
<forcefield name="MMFF" derivedFrom="MMFF" base="MMFF">
<atomTypes>
<atomType
name="C100"
element="C"
mass="12.011"
annotation=""/>
<atomType
name="O101"
element="O"
mass="16"
annotation=""/>
<atomType
name="N102"
element="N"
mass="14.007"
annotation=""/>
<atomType
name="H103"
element="H"
mass="1.008"
annotation=""/>
</atomTypes>
<parameters>
</parameters>
</forcefield>
</ffml>

> <Initial Potential Energy>
124.90237

> <Initial RMS Gradient>
28.25711

> <Minimization Criteria>
CONJUG> Minimization exiting with gradient tolerance ( 0.0100000) satisfied.

> <CHARMm Energy>
39.84514

> <Potential Energy>
39.84514

> <RMS Gradient>
0.00958

> <Bond Energy>
7.52202

> <Angle Energy>
27.24041

> <STRBend>
-0.6984

> <Dihedral Energy>
2.29426

> <OOPLane>
0.17323

> <Van der Waals Energy>
64.82702

> <Electrostatic Energy>
-61.5134

> <Hydrogen Bond Energy>
0

> <Solvation Free Energy>
0

> <HasGasteigerCharges>
true

> <REMARK99>
REMARK  99  MacroMolecule created from Mol2 file
REMARK  99  CHEMBL3398425
REMARK  99  PROTEIN
REMARK  99  GASTEIGER
REMARK  99
REMARK  99

$$$$
CHEMBL2260198
  SciTegic05292516403D

 78 83  0  0  0  0            999 V2000
   16.1566    1.1980    0.7191 C   0  0
   15.8509    0.1017   -0.1001 C   0  0
   16.8843   -0.7058   -0.5995 C   0  0
   17.4889    1.5494    1.0267 C   0  0
   18.5146    0.7381    0.5034 C   0  0
   18.2034   -0.3724   -0.2718 C   0  0
   19.4217   -0.9584   -0.5517 N   0  0
   20.4034   -0.1530   -0.0017 C   0  0
   19.8705    0.8738    0.6355 N   0  0
   19.6334   -2.1385   -1.3914 C   0  0
   18.8826   -3.3703   -0.9583 C   0  0
   18.9871   -3.8721    0.3441 C   0  0
   18.2631   -5.0059    0.7206 C   0  0
   17.4289   -5.6664   -0.1961 C   0  0
   17.3622   -5.1862   -1.5101 C   0  0
   18.0884   -4.0568   -1.8897 C   0  0
   16.5600   -6.7671    0.2403 C   0  0
   15.4152   -6.3934    0.9791 C   0  0
   14.4808   -7.3337    1.4024 C   0  0
   14.6679   -8.6793    1.0888 C   0  0
   15.7960   -9.0771    0.3645 C   0  0
   16.7521   -8.1367   -0.0601 C   0  0
   17.9061   -8.7047   -0.8196 C   0  0
   18.9854   -7.8916   -0.7333 O   0  0
   17.8761   -9.7935   -1.3804 O   0  0
   20.1352   -8.3594   -1.4340 C   0  0
   13.6997   -9.7162    1.5095 C   0  0
   12.4917   -9.1424    1.7348 O   0  0
   13.9795  -10.9001    1.5964 O   0  0
   11.4741  -10.0734    2.1105 C   0  0
   17.7591    2.7440    1.8944 C   0  0
   21.8750   -0.3891   -0.1240 C   0  0
   22.4037   -1.4277    0.8661 C   0  0
   22.2934   -0.9848    2.3189 C   0  0
   14.4691   -0.2594   -0.4350 C   0  0
   13.4887    0.6111   -0.8771 N   0  0
   14.0024   -1.4962   -0.4185 N   0  0
   12.6938   -1.4182   -0.8108 C   0  0
   12.3345   -0.1063   -1.0931 C   0  0
   11.0473    0.2430   -1.5166 C   0  0
   10.1130   -0.7862   -1.6666 C   0  0
   10.4585   -2.1102   -1.3950 C   0  0
   11.7485   -2.4414   -0.9605 C   0  0
   13.6503    2.0162   -1.1605 C   0  0
   15.3550    1.7994    1.1469 H   0  0
   16.6497   -1.5747   -1.2064 H   0  0
   19.3424   -1.8299   -2.4031 H   0  0
   20.6999   -2.3764   -1.4199 H   0  0
   19.6138   -3.3755    1.0833 H   0  0
   18.3397   -5.3645    1.7460 H   0  0
   16.7164   -5.6714   -2.2393 H   0  0
   18.0023   -3.6993   -2.9144 H   0  0
   15.2403   -5.3417    1.2131 H   0  0
   13.6128   -7.0027    1.9679 H   0  0
   15.9286  -10.1311    0.1247 H   0  0
   20.9248   -7.6101   -1.3291 H   0  0
   19.9148   -8.4826   -2.4990 H   0  0
   20.4902   -9.2997   -1.0007 H   0  0
   11.3053  -10.7990    1.3086 H   0  0
   10.5482   -9.5150    2.2737 H   0  0
   11.7432  -10.5798    3.0427 H   0  0
   18.8326    2.9047    2.0336 H   0  0
   17.3075    2.6009    2.8812 H   0  0
   17.3394    3.6453    1.4362 H   0  0
   22.1207   -0.6945   -1.1473 H   0  0
   22.3990    0.5620    0.0358 H   0  0
   21.8826   -2.3830    0.7416 H   0  0
   23.4608   -1.6136    0.6414 H   0  0
   22.7580   -1.7284    2.9743 H   0  0
   21.2488   -0.8767    2.6268 H   0  0
   22.8020   -0.0287    2.4776 H   0  0
   10.7672    1.2690   -1.7321 H   0  0
    9.1085   -0.5348   -2.0053 H   0  0
    9.7349   -2.9091   -1.5225 H   0  0
   12.0207   -3.4691   -0.7483 H   0  0
   12.9279    2.3253   -1.9201 H   0  0
   14.6543    2.2004   -1.5500 H   0  0
   13.4807    2.5751   -0.2374 H   0  0
  1  2  2  0
  1 45  1  0
  2  3  1  0
  2 35  1  0
  3  6  2  0
  3 46  1  0
  4  1  1  0
  4 31  1  0
  5  4  2  0
  5  6  1  0
  6  7  1  0
  7  8  1  0
  7 10  1  0
  8  9  2  0
  8 32  1  0
  9  5  1  0
 10 11  1  0
 10 47  1  0
 10 48  1  0
 11 12  2  0
 12 13  1  0
 12 49  1  0
 13 14  2  0
 13 50  1  0
 14 15  1  0
 14 17  1  0
 15 16  2  0
 15 51  1  0
 16 11  1  0
 16 52  1  0
 17 18  2  0
 18 19  1  0
 18 53  1  0
 19 20  2  0
 19 54  1  0
 20 21  1  0
 20 27  1  0
 21 22  2  0
 21 55  1  0
 22 17  1  0
 22 23  1  0
 23 24  1  0
 23 25  2  0
 24 26  1  0
 26 56  1  0
 26 57  1  0
 26 58  1  0
 27 28  1  0
 27 29  2  0
 28 30  1  0
 30 59  1  0
 30 60  1  0
 30 61  1  0
 31 62  1  0
 31 63  1  0
 31 64  1  0
 32 33  1  0
 32 65  1  0
 32 66  1  0
 33 34  1  0
 33 67  1  0
 33 68  1  0
 34 69  1  0
 34 70  1  0
 34 71  1  0
 35 36  1  0
 36 39  1  0
 36 44  1  0
 37 35  2  0
 38 37  1  0
 38 39  2  0
 39 40  1  0
 40 41  2  0
 40 72  1  0
 41 42  1  0
 41 73  1  0
 42 43  2  0
 42 74  1  0
 43 38  1  0
 43 75  1  0
 44 76  1  0
 44 77  1  0
 44 78  1  0
M  END
> <Name>
CHEMBL2260198

> <Clean Energy>
101.032997

> <chembl_id>
CHEMBL2260198

> <chembl_pref_name>
None

> <efficacy>
0.08

> <Forcefield>
MMFF

> <ForcefieldBase>
MMFF

> <ForcefieldFFML>
<?xml version="1.0" encoding="UTF-8"?>
<!DOCTYPE ffml SYSTEM "Ffml.dtd">
<ffml version="1.0">
<forcefield name="MMFF" derivedFrom="MMFF" base="MMFF">
<atomTypes>
<atomType
name="C100"
element="C"
mass="12.011"
annotation=""/>
<atomType
name="N101"
element="N"
mass="14.007"
annotation=""/>
<atomType
name="O102"
element="O"
mass="16"
annotation=""/>
<atomType
name="H103"
element="H"
mass="1.008"
annotation=""/>
</atomTypes>
<parameters>
</parameters>
</forcefield>
</ffml>

> <Initial Potential Energy>
901.10521

> <Initial RMS Gradient>
335.03505

> <Minimization Criteria>
STEEPD> Minimization exiting with gradient tolerance ( 3.0000000) satisfied.

> <CHARMm Energy>
101.30359

> <Potential Energy>
101.30359

> <RMS Gradient>
0.05291

> <Bond Energy>
9.67738

> <Angle Energy>
16.27488

> <STRBend>
-0.35598

> <Dihedral Energy>
9.48038

> <OOPLane>
0.2353

> <Van der Waals Energy>
84.33314

> <Electrostatic Energy>
-18.34151

> <Hydrogen Bond Energy>
0

> <Solvation Free Energy>
0

> <HasGasteigerCharges>
true

> <REMARK99>
REMARK  99  MacroMolecule created from Mol2 file
REMARK  99  CHEMBL2260198
REMARK  99  PROTEIN
REMARK  99  GASTEIGER
REMARK  99
REMARK  99

$$$$
CHEMBL564902
  SciTegic05292516403D

 64 67  0  0  0  0            999 V2000
   -9.6052    2.0960   -0.0740 C   0  0
  -10.4711    3.0882    0.4306 C   0  0
  -11.6227    2.7031    1.1386 C   0  0
  -11.8739    1.3592    1.3857 C   0  0
  -10.9957    0.3781    0.9073 C   0  0
   -9.8576    0.7430    0.1525 C   0  0
   -8.8290   -0.0031   -0.4977 C   0  0
   -8.0646    0.9045   -1.2305 C   0  0
   -8.4516    2.1806   -0.8515 N   0  0
   -7.0449    0.6319   -2.2888 C   0  0
   -8.7012   -1.4593   -0.4909 C   0  0
   -7.3409   -2.0572   -0.4566 C   0  0
   -9.6747   -2.2111   -0.4965 O   0  0
   -7.0980   -3.1848   -1.2474 C   0  0
   -5.8344   -3.7729   -1.2527 C   0  0
   -4.8183   -3.2447   -0.4583 C   0  0
   -5.0554   -2.1300    0.3460 C   0  0
   -6.3197   -1.5332    0.3500 C   0  0
   -3.2608   -3.9700   -0.4674 Cl  0  0
  -12.4104    3.7447    1.5440 O   0  0
  -13.7679    3.4552    1.8787 C   0  0
  -14.4489    4.6200    2.0279 F   0  0
  -14.3892    2.7445    0.9100 F   0  0
  -13.8584    2.7824    3.0495 F   0  0
   -7.9152    3.4613   -1.3454 C   0  0
   -6.4125    3.5536   -1.5220 C   0  0
   -5.5172    3.2799   -0.4736 C   0  0
   -4.1352    3.4172   -0.6591 C   0  0
   -3.6368    3.8096   -1.9019 C   0  0
   -4.5100    4.0974   -2.9490 C   0  0
   -5.8877    3.9814   -2.7562 C   0  0
   -3.3423    3.0822    0.4094 O   0  0
   -2.1197    3.8423    0.5657 C   0  0  2  0  0  0
   -0.9648    3.0547   -0.0578 C   0  0
   -1.2192    1.7321   -0.2058 O   0  0
    0.1057    3.5503   -0.3873 O   0  0
   -1.8831    4.0458    2.0809 C   0  0
   -0.6624    4.9265    2.3634 C   0  0
   -3.1150    4.6638    2.7556 C   0  0
  -10.2743    4.1410    0.2532 H   0  0
  -12.7471    1.0203    1.9400 H   0  0
  -11.2230   -0.6730    1.0856 H   0  0
   -7.1301    1.3422   -3.1161 H   0  0
   -7.1938   -0.3583   -2.7308 H   0  0
   -6.0321    0.6689   -1.8786 H   0  0
   -7.8921   -3.5912   -1.8678 H   0  0
   -5.6523   -4.6411   -1.8780 H   0  0
   -4.2564   -1.7349    0.9697 H   0  0
   -6.5023   -0.6704    0.9863 H   0  0
   -8.4373    3.6442   -2.2925 H   0  0
   -8.2089    4.2453   -0.6398 H   0  0
   -5.8953    2.9602    0.4957 H   0  0
   -2.5708    3.8879   -2.0986 H   0  0
   -4.1047    4.4051   -3.9146 H   0  0
   -6.5523    4.2162   -3.5864 H   0  0
   -2.1990    4.8184    0.0699 H   0  0
   -2.1457    1.5420    0.0571 H   0  0
   -1.7145    3.0667    2.5487 H   0  0
   -0.5565    5.1114    3.4380 H   0  0
   -0.7487    5.8962    1.8617 H   0  0
    0.2629    4.4486    2.0292 H   0  0
   -2.9308    4.8331    3.8221 H   0  0
   -3.9858    4.0050    2.6789 H   0  0
   -3.3735    5.6257    2.2999 H   0  0
  1  2  2  0
  1  6  1  0
  1  9  1  0
  2  3  1  0
  2 40  1  0
  3  4  2  0
  3 20  1  0
  4  5  1  0
  4 41  1  0
  5  6  2  0
  5 42  1  0
  6  7  1  0
  7  8  2  0
  7 11  1  0
  8  9  1  0
  8 10  1  0
  9 25  1  0
 10 43  1  0
 10 44  1  0
 10 45  1  0
 11 12  1  0
 11 13  2  0
 12 14  1  0
 12 18  2  0
 14 15  2  0
 14 46  1  0
 15 16  1  0
 15 47  1  0
 16 17  2  0
 16 19  1  0
 17 18  1  0
 17 48  1  0
 18 49  1  0
 20 21  1  0
 21 22  1  0
 21 23  1  0
 21 24  1  0
 25 26  1  0
 25 50  1  0
 25 51  1  0
 26 27  1  0
 26 31  2  0
 27 28  2  0
 27 52  1  0
 28 29  1  0
 28 32  1  0
 29 30  2  0
 29 53  1  0
 30 31  1  0
 30 54  1  0
 31 55  1  0
 32 33  1  0
 33 34  1  0
 33 37  1  0
 33 56  1  0
 34 35  1  0
 34 36  2  0
 35 57  1  0
 37 38  1  0
 37 39  1  0
 37 58  1  0
 38 59  1  0
 38 60  1  0
 38 61  1  0
 39 62  1  0
 39 63  1  0
 39 64  1  0
M  END
> <Name>
CHEMBL564902

> <Clean Energy>
96.104301

> <chembl_id>
CHEMBL564902

> <chembl_pref_name>
None

> <efficacy>
0.24

> <Forcefield>
MMFF

> <ForcefieldBase>
MMFF

> <ForcefieldFFML>
<?xml version="1.0" encoding="UTF-8"?>
<!DOCTYPE ffml SYSTEM "Ffml.dtd">
<ffml version="1.0">
<forcefield name="MMFF" derivedFrom="MMFF" base="MMFF">
<atomTypes>
<atomType
name="C100"
element="C"
mass="12.011"
annotation=""/>
<atomType
name="N101"
element="N"
mass="14.007"
annotation=""/>
<atomType
name="O102"
element="O"
mass="16"
annotation=""/>
<atomType
name="Cl103"
element="Cl"
mass="35.453"
annotation=""/>
<atomType
name="F104"
element="F"
mass="18.998"
annotation=""/>
<atomType
name="H105"
element="H"
mass="1.008"
annotation=""/>
</atomTypes>
<parameters>
</parameters>
</forcefield>
</ffml>

> <Initial Potential Energy>
306.32822

> <Initial RMS Gradient>
35.26

> <Minimization Criteria>
CONJUG> Minimization exiting with gradient tolerance ( 0.0100000) satisfied.

> <CHARMm Energy>
117.78564

> <Potential Energy>
117.78564

> <RMS Gradient>
0.00951

> <Bond Energy>
8.82168

> <Angle Energy>
21.82466

> <STRBend>
0.4855

> <Dihedral Energy>
11.32975

> <OOPLane>
0.20524

> <Van der Waals Energy>
68.66921

> <Electrostatic Energy>
6.44961

> <Hydrogen Bond Energy>
0

> <Solvation Free Energy>
0

> <HasGasteigerCharges>
true

> <REMARK99>
REMARK  99  MacroMolecule created from Mol2 file
REMARK  99  CHEMBL564902
REMARK  99  PROTEIN
REMARK  99  GASTEIGER
REMARK  99
REMARK  99

$$$$
CHEMBL5194570
  SciTegic05292516403D

 52 53  0  0  0  0            999 V2000
    5.6238    0.0595   -0.9427 O   0  0
    4.7730   -0.1165   -0.0827 C   0  0
    4.5992   -1.2082    0.6857 O   0  0
    5.4440   -2.3761    0.5203 C   0  0
    5.2949   -2.9766   -0.8819 C   0  0
    6.9052   -2.0535    0.8517 C   0  0
    4.9178   -3.3899    1.5472 C   0  0
    3.8614    0.8264    0.2526 N   0  0
    3.5113    1.9909   -0.5732 C   0  0  2  0  0  0
    4.6032    3.0586   -0.7644 C   0  0
    5.8723    2.6098   -0.8371 O   0  0
    4.3577    4.2467   -0.9451 O   0  0
    2.2850    2.7059    0.0199 C   0  0
    1.1751    1.7987    0.0930 O   0  0
    0.0200    2.4581    0.6218 C   0  0
   -1.2089    1.6071    0.4346 C   0  0
   -1.4277    0.9034   -0.7555 C   0  0
   -2.6050    0.1728   -0.9460 C   0  0
   -3.6014    0.1322    0.0415 C   0  0
   -3.3782    0.8471    1.2276 C   0  0
   -2.2011    1.5777    1.4218 C   0  0
   -4.8373   -0.6417   -0.1602 C   0  0
   -4.7813   -2.0068   -0.4910 C   0  0
   -5.9485   -2.7501   -0.6819 C   0  0
   -7.1923   -2.1369   -0.5493 C   0  0
   -7.2733   -0.7854   -0.2242 C   0  0
   -6.1032   -0.0446   -0.0294 C   0  0
    5.8043   -3.9433   -0.9575 H   0  0
    5.7155   -2.3238   -1.6528 H   0  0
    4.2378   -3.1190   -1.1333 H   0  0
    7.5171   -2.9615    0.8803 H   0  0
    6.9818   -1.5509    1.8225 H   0  0
    7.3524   -1.3800    0.1144 H   0  0
    5.4789   -4.3298    1.5154 H   0  0
    3.8593   -3.6123    1.3680 H   0  0
    4.9802   -2.9837    2.5635 H   0  0
    3.1615    0.5094    0.9145 H   0  0
    3.2656    1.5976   -1.5673 H   0  0
    5.9578    1.6294   -0.8983 H   0  0
    2.5105    3.0753    1.0284 H   0  0
    1.9977    3.5571   -0.6091 H   0  0
    0.1946    2.6521    1.6865 H   0  0
   -0.1449    3.4134    0.1083 H   0  0
   -0.6816    0.9238   -1.5473 H   0  0
   -2.7461   -0.3576   -1.8858 H   0  0
   -4.1217    0.8329    2.0211 H   0  0
   -2.0705    2.1253    2.3527 H   0  0
   -3.8132   -2.4958   -0.5915 H   0  0
   -5.8948   -3.8073   -0.9308 H   0  0
   -8.1006   -2.7142   -0.6996 H   0  0
   -8.2483   -0.3114   -0.1253 H   0  0
   -6.1911    1.0123    0.2146 H   0  0
  2  1  2  0
  2  3  1  0
  3  4  1  0
  4  5  1  0
  4  6  1  0
  4  7  1  0
  5 28  1  0
  5 29  1  0
  5 30  1  0
  6 31  1  0
  6 32  1  0
  6 33  1  0
  7 34  1  0
  7 35  1  0
  7 36  1  0
  8  2  1  0
  8 37  1  0
  9  8  1  0
  9 10  1  0
  9 38  1  0
 10 11  1  0
 10 12  2  0
 11 39  1  0
 13  9  1  0
 13 40  1  0
 13 41  1  0
 14 13  1  0
 15 14  1  0
 15 42  1  0
 15 43  1  0
 16 15  1  0
 16 21  2  0
 17 16  1  0
 17 44  1  0
 18 17  2  0
 18 45  1  0
 19 18  1  0
 20 19  2  0
 20 46  1  0
 21 20  1  0
 21 47  1  0
 22 19  1  0
 22 27  1  0
 23 22  2  0
 23 48  1  0
 24 23  1  0
 24 49  1  0
 25 24  2  0
 25 50  1  0
 26 25  1  0
 26 51  1  0
 27 26  2  0
 27 52  1  0
M  END
> <Name>
CHEMBL5194570

> <Clean Energy>
9.17142

> <chembl_id>
CHEMBL5194570

> <chembl_pref_name>
None

> <efficacy>
0.2

> <Forcefield>
MMFF

> <ForcefieldBase>
MMFF

> <ForcefieldFFML>
<?xml version="1.0" encoding="UTF-8"?>
<!DOCTYPE ffml SYSTEM "Ffml.dtd">
<ffml version="1.0">
<forcefield name="MMFF" derivedFrom="MMFF" base="MMFF">
<atomTypes>
<atomType
name="O100"
element="O"
mass="16"
annotation=""/>
<atomType
name="C101"
element="C"
mass="12.011"
annotation=""/>
<atomType
name="N102"
element="N"
mass="14.007"
annotation=""/>
<atomType
name="H103"
element="H"
mass="1.008"
annotation=""/>
</atomTypes>
<parameters>
</parameters>
</forcefield>
</ffml>

> <Initial Potential Energy>
83.82961

> <Initial RMS Gradient>
25.56806

> <Minimization Criteria>
STEEPD> Minimization exiting with gradient tolerance ( 3.0000000) satisfied.

> <CHARMm Energy>
5.55454

> <Potential Energy>
5.55454

> <RMS Gradient>
0.03542

> <Bond Energy>
6.31954

> <Angle Energy>
11.44446

> <STRBend>
0.03416

> <Dihedral Energy>
9.80646

> <OOPLane>
0.66075

> <Van der Waals Energy>
52.44463

> <Electrostatic Energy>
-75.15547

> <Hydrogen Bond Energy>
0

> <Solvation Free Energy>
0

> <HasGasteigerCharges>
true

> <REMARK99>
REMARK  99  MacroMolecule created from Mol2 file
REMARK  99  CHEMBL5194570
REMARK  99  PROTEIN
REMARK  99  GASTEIGER
REMARK  99
REMARK  99

$$$$
CHEMBL4858856
  SciTegic05292516403D

 50 52  0  0  0  0            999 V2000
   23.1443   -1.9968    0.3544 C   0  0
   13.0643   -5.9642    0.1030 C   0  0
   13.0620   -7.3034    0.5531 C   0  0
   14.2522   -8.0011    0.7793 C   0  0
   14.2788   -5.3013   -0.1150 C   0  0
   11.8140   -5.4328   -0.0663 O   0  0
   15.4480   -6.0032    0.1126 C   0  0
   15.4263   -7.3224    0.5464 C   0  0
   16.8066   -7.7664    0.6761 C   0  0
   17.5796   -6.5568    0.2913 C   0  0
   16.7234   -5.5144   -0.0523 O   0  0
   18.9188   -6.5247    0.2820 C   0  0
   19.7640   -5.3767   -0.0775 C   0  0
   17.1812   -8.8722    1.0055 O   0  0
   21.0222   -5.6274   -0.6438 C   0  0
   21.9048   -4.5811   -0.9497 C   0  0
   21.5220   -3.2691   -0.6408 C   0  0
   20.2492   -2.9825   -0.1267 C   0  0
   19.3938   -4.0501    0.1814 C   0  0
   19.8116   -1.5733    0.1565 C   0  0
   23.2489   -4.8870   -1.5444 C   0  0
   22.4112   -2.2437   -0.8445 O   0  0
   23.3348   -0.5069    0.6096 C   0  0
   23.6869   -0.2356    1.8961 O   0  0
   23.2317    0.3856   -0.2193 O   0  0
   11.6970   -4.1310   -0.6437 C   0  0
   11.7320   -3.0570    0.4405 C   0  0
   11.5565   -1.6656   -0.1414 C   0  0
   24.1398   -2.4416    0.2479 H   0  0
   22.6561   -2.4293    1.2383 H   0  0
   12.1103   -7.8034    0.7236 H   0  0
   14.2520   -9.0313    1.1184 H   0  0
   14.3438   -4.2715   -0.4429 H   0  0
   19.4553   -7.4329    0.5541 H   0  0
   21.3232   -6.6531   -0.8534 H   0  0
   18.4325   -3.8299    0.6398 H   0  0
   18.7191   -1.4969    0.1727 H   0  0
   20.1664   -0.8890   -0.6210 H   0  0
   20.1965   -1.2474    1.1275 H   0  0
   23.5086   -4.1563   -2.3173 H   0  0
   23.2557   -5.8728   -2.0215 H   0  0
   24.0164   -4.8755   -0.7645 H   0  0
   23.6910   -1.0234    2.4744 H   0  0
   12.4317   -3.9595   -1.4389 H   0  0
   10.7171   -4.1031   -1.1352 H   0  0
   10.9416   -3.2550    1.1745 H   0  0
   12.6743   -3.1048    0.9972 H   0  0
   11.5789   -0.9156    0.6554 H   0  0
   10.5991   -1.5766   -0.6645 H   0  0
   12.3585   -1.4332   -0.8494 H   0  0
  1 23  1  0
  1 29  1  0
  1 30  1  0
  2  3  2  0
  2  6  1  0
  3  4  1  0
  3 31  1  0
  4  8  2  0
  4 32  1  0
  5  2  1  0
  5 33  1  0
  6 26  1  0
  7  5  2  0
  7  8  1  0
  8  9  1  0
  9 10  1  0
  9 14  2  0
 10 11  1  0
 10 12  2  0
 11  7  1  0
 12 13  1  0
 12 34  1  0
 13 15  2  0
 15 16  1  0
 15 35  1  0
 16 17  2  0
 16 21  1  0
 17 18  1  0
 17 22  1  0
 18 19  2  0
 18 20  1  0
 19 13  1  0
 19 36  1  0
 20 37  1  0
 20 38  1  0
 20 39  1  0
 21 40  1  0
 21 41  1  0
 21 42  1  0
 22  1  1  0
 23 24  1  0
 23 25  2  0
 24 43  1  0
 26 27  1  0
 26 44  1  0
 26 45  1  0
 27 28  1  0
 27 46  1  0
 27 47  1  0
 28 48  1  0
 28 49  1  0
 28 50  1  0
M  END
> <Name>
CHEMBL4858856

> <Clean Energy>
40.1595

> <chembl_id>
CHEMBL4858856

> <chembl_pref_name>
None

> <efficacy>
0.3

> <Forcefield>
MMFF

> <ForcefieldBase>
MMFF

> <ForcefieldFFML>
<?xml version="1.0" encoding="UTF-8"?>
<!DOCTYPE ffml SYSTEM "Ffml.dtd">
<ffml version="1.0">
<forcefield name="MMFF" derivedFrom="MMFF" base="MMFF">
<atomTypes>
<atomType
name="C100"
element="C"
mass="12.011"
annotation=""/>
<atomType
name="O101"
element="O"
mass="16"
annotation=""/>
<atomType
name="H102"
element="H"
mass="1.008"
annotation=""/>
</atomTypes>
<parameters>
</parameters>
</forcefield>
</ffml>

> <Initial Potential Energy>
149.59387

> <Initial RMS Gradient>
25.55896

> <Minimization Criteria>
CONJUG> Minimization exiting with gradient tolerance ( 0.0100000) satisfied.

> <CHARMm Energy>
84.10966

> <Potential Energy>
84.10966

> <RMS Gradient>
0.00795

> <Bond Energy>
4.24606

> <Angle Energy>
28.07069

> <STRBend>
0.13694

> <Dihedral Energy>
3.15876

> <OOPLane>
0.07611

> <Van der Waals Energy>
49.00896

> <Electrostatic Energy>
-0.58785

> <Hydrogen Bond Energy>
0

> <Solvation Free Energy>
0

> <HasGasteigerCharges>
true

> <REMARK99>
REMARK  99  MacroMolecule created from Mol2 file
REMARK  99  CHEMBL4858856
REMARK  99  PROTEIN
REMARK  99  GASTEIGER
REMARK  99
REMARK  99

$$$$
CHEMBL4859884
  SciTegic05292516403D

 51 54  0  0  0  0            999 V2000
   10.0466  -11.2620    0.1796 C   0  0
    0.3223  -15.3196   -0.1671 C   0  0
    0.1941  -16.5954    0.4288 C   0  0
    1.3121  -17.3450    0.8163 C   0  0
    1.5904  -14.7846   -0.3914 C   0  0
   -0.8663  -14.7081   -0.4554 O   0  0
    2.6819  -15.5235    0.0175 C   0  0
    2.5460  -16.7765    0.6018 C   0  0
    3.8873  -17.2597    0.9178 C   0  0
    4.7505  -16.1260    0.4961 C   0  0
    3.9864  -15.1104   -0.0744 O   0  0
    6.0761  -16.0702    0.6740 C   0  0
    6.8516  -14.8830    0.3031 C   0  0
    4.1917  -18.3253    1.4094 O   0  0
    7.9589  -15.0097   -0.5402 C   0  0
    8.6864  -13.8785   -0.9372 C   0  0
    8.3080  -12.6222   -0.4377 C   0  0
    7.1863  -12.4676    0.3877 C   0  0
    6.4858  -13.6134    0.7763 C   0  0
    6.7477  -11.1195    0.8840 C   0  0
    9.8640  -14.0322   -1.8556 C   0  0
    9.0316  -11.5124   -0.7884 O   0  0
   10.1206   -9.7896    0.5679 C   0  0
   11.0436   -9.5611    1.5428 O   0  0
    9.4625   -8.8790    0.0853 O   0  0
   -0.8559  -13.4056   -1.0544 C   0  0
   -0.5884  -12.3382   -0.0314 C   0  0
    0.6158  -11.4302   -0.1213 C   0  0
   -0.7470  -10.8850   -0.4145 C   0  0
   11.0089  -11.5338   -0.2681 H   0  0
    9.9056  -11.8397    1.1035 H   0  0
   -0.8018  -17.0005    0.5970 H   0  0
    1.2101  -18.3213    1.2774 H   0  0
    1.7559  -13.8207   -0.8499 H   0  0
    6.6162  -16.9066    1.1086 H   0  0
    8.2442  -15.9924   -0.9116 H   0  0
    5.6291  -13.5111    1.4406 H   0  0
    5.7058  -11.1419    1.2215 H   0  0
    6.8074  -10.3721    0.0863 H   0  0
    7.3739  -10.8052    1.7243 H   0  0
    9.8633  -13.2514   -2.6231 H   0  0
    9.8379  -14.9947   -2.3776 H   0  0
   10.7956  -13.9768   -1.2843 H   0  0
   11.4662  -10.3750    1.8795 H   0  0
   -0.1783  -13.3656   -1.9157 H   0  0
   -1.8654  -13.2519   -1.4525 H   0  0
   -0.9665  -12.6137    0.9479 H   0  0
    1.0912  -11.1343    0.8071 H   0  0
    1.2972  -11.5200   -0.9589 H   0  0
   -1.0016  -10.6432   -1.4412 H   0  0
   -1.1977  -10.2167    0.3121 H   0  0
  1 23  1  0
  1 30  1  0
  1 31  1  0
  2  3  2  0
  2  6  1  0
  3  4  1  0
  3 32  1  0
  4  8  2  0
  4 33  1  0
  5  2  1  0
  5 34  1  0
  6 26  1  0
  7  5  2  0
  7  8  1  0
  8  9  1  0
  9 10  1  0
  9 14  2  0
 10 11  1  0
 10 12  2  0
 11  7  1  0
 12 13  1  0
 12 35  1  0
 13 15  2  0
 15 16  1  0
 15 36  1  0
 16 17  2  0
 16 21  1  0
 17 18  1  0
 17 22  1  0
 18 19  2  0
 18 20  1  0
 19 13  1  0
 19 37  1  0
 20 38  1  0
 20 39  1  0
 20 40  1  0
 21 41  1  0
 21 42  1  0
 21 43  1  0
 22  1  1  0
 23 24  1  0
 23 25  2  0
 24 44  1  0
 26 27  1  0
 26 45  1  0
 26 46  1  0
 27 29  1  0
 27 47  1  0
 28 27  1  0
 28 48  1  0
 28 49  1  0
 29 28  1  0
 29 50  1  0
 29 51  1  0
M  END
> <Name>
CHEMBL4859884

> <Clean Energy>
69.677498

> <chembl_id>
CHEMBL4859884

> <chembl_pref_name>
None

> <efficacy>
0.35

> <Forcefield>
MMFF

> <ForcefieldBase>
MMFF

> <ForcefieldFFML>
<?xml version="1.0" encoding="UTF-8"?>
<!DOCTYPE ffml SYSTEM "Ffml.dtd">
<ffml version="1.0">
<forcefield name="MMFF" derivedFrom="MMFF" base="MMFF">
<atomTypes>
<atomType
name="C100"
element="C"
mass="12.011"
annotation=""/>
<atomType
name="O101"
element="O"
mass="16"
annotation=""/>
<atomType
name="H102"
element="H"
mass="1.008"
annotation=""/>
</atomTypes>
<parameters>
</parameters>
</forcefield>
</ffml>

> <Initial Potential Energy>
187.80596

> <Initial RMS Gradient>
26.36304

> <Minimization Criteria>
STEEPD> Minimization exiting with gradient tolerance ( 3.0000000) satisfied.

> <CHARMm Energy>
107.05398

> <Potential Energy>
107.05398

> <RMS Gradient>
0.01023

> <Bond Energy>
4.21264

> <Angle Energy>
27.6649

> <STRBend>
-0.15682

> <Dihedral Energy>
15.20473

> <OOPLane>
0.03578

> <Van der Waals Energy>
48.04987

> <Electrostatic Energy>
12.04287

> <Hydrogen Bond Energy>
0

> <Solvation Free Energy>
0

> <HasGasteigerCharges>
true

> <REMARK99>
REMARK  99  MacroMolecule created from Mol2 file
REMARK  99  CHEMBL4859884
REMARK  99  PROTEIN
REMARK  99  GASTEIGER
REMARK  99
REMARK  99

$$$$
CHEMBL5087046
  SciTegic05292516403D

 56 59  0  0  0  0            999 V2000
    3.3419  -24.2701    1.0551 F   0  0
    2.3952  -24.6029    0.1294 C   0  0
    2.7951  -24.0192   -1.0340 F   0  0
    1.0180  -26.6986    0.3557 C   0  0
    0.7951  -28.0770    0.2255 C   0  0
    1.8288  -28.8728   -0.2745 C   0  0
    3.0595  -28.3068   -0.6188 C   0  0
    3.3049  -26.9308   -0.4647 C   0  0
    2.2506  -26.1076    0.0032 C   0  0
    1.2550  -23.9548    0.5033 F   0  0
    4.6406  -26.3653   -0.9134 C   0  0
    5.7903  -27.1457   -0.4809 N   0  0
    6.6912  -27.6609   -1.3926 C   0  0
    7.9799  -28.2135   -0.8700 C   0  0
    6.4656  -27.6730   -2.5990 O   0  0
    8.6984  -29.0857   -1.6975 C   0  0
    9.9420  -29.6029   -1.3166 C   0  0
    8.5158  -27.8343    0.3722 C   0  0
    9.7675  -28.3486    0.7803 C   0  0
   10.4592  -29.2146   -0.0717 C   0  0
   11.6495  -29.5362    0.5578 N   0  0
   11.7179  -28.9125    1.7796 C   0  0
   10.5720  -28.1677    1.9396 C   0  0
   12.7332  -30.3349   -0.0130 C   0  0
   12.5607  -31.8352    0.0917 C   0  0
   11.4535  -32.4535    0.6947 C   0  0
   11.3141  -33.8431    0.7070 C   0  0
   12.2988  -34.6418    0.1378 C   0  0
   13.4212  -34.0472   -0.4237 C   0  0
   13.5569  -32.6610   -0.4571 C   0  0
   14.3873  -34.8177   -0.9428 F   0  0
   -0.5356  -28.6813    0.6033 C   0  0
   -1.8260  -28.3321   -0.6339 S   0  0
   -3.2014  -29.2064    0.1506 C   0  0
    0.2080  -26.0670    0.7216 H   0  0
    1.6832  -29.9424   -0.4159 H   0  0
    3.8309  -28.9521   -1.0361 H   0  0
    4.6270  -26.2518   -2.0029 H   0  0
    4.8085  -25.3734   -0.4856 H   0  0
    5.9420  -27.2484    0.5112 H   0  0
    8.2870  -29.3659   -2.6671 H   0  0
   10.4852  -30.2741   -1.9758 H   0  0
    8.0133  -27.1239    1.0175 H   0  0
   12.5790  -29.0393    2.4256 H   0  0
   10.3503  -27.5484    2.7990 H   0  0
   12.8246  -30.0409   -1.0653 H   0  0
   13.6562  -30.0386    0.5002 H   0  0
   10.6649  -31.8651    1.1575 H   0  0
   10.4318  -34.2926    1.1572 H   0  0
   12.1983  -35.7205    0.1341 H   0  0
   14.4506  -32.2434   -0.9160 H   0  0
   -0.4368  -29.7667    0.7155 H   0  0
   -0.8473  -28.2814    1.5749 H   0  0
   -4.0959  -29.0993   -0.4684 H   0  0
   -3.4084  -28.7843    1.1373 H   0  0
   -2.9699  -30.2704    0.2459 H   0  0
  2  1  1  0
  2 10  1  0
  3  2  1  0
  4  5  2  0
  4 35  1  0
  5  6  1  0
  5 32  1  0
  6  7  2  0
  6 36  1  0
  7  8  1  0
  7 37  1  0
  8  9  2  0
  8 11  1  0
  9  2  1  0
  9  4  1  0
 11 12  1  0
 11 38  1  0
 11 39  1  0
 12 13  1  0
 12 40  1  0
 13 14  1  0
 13 15  2  0
 14 16  2  0
 16 17  1  0
 16 41  1  0
 17 20  2  0
 17 42  1  0
 18 14  1  0
 18 43  1  0
 19 18  2  0
 19 20  1  0
 20 21  1  0
 21 22  1  0
 21 24  1  0
 22 23  2  0
 22 44  1  0
 23 19  1  0
 23 45  1  0
 24 25  1  0
 24 46  1  0
 24 47  1  0
 25 26  2  0
 26 27  1  0
 26 48  1  0
 27 28  2  0
 27 49  1  0
 28 29  1  0
 28 50  1  0
 29 30  2  0
 29 31  1  0
 30 25  1  0
 30 51  1  0
 32 33  1  0
 32 52  1  0
 32 53  1  0
 33 34  1  0
 34 54  1  0
 34 55  1  0
 34 56  1  0
M  END
> <Name>
CHEMBL5087046

> <Clean Energy>
50.500702

> <chembl_id>
CHEMBL5087046

> <chembl_pref_name>
None

> <efficacy>
0.199430199

> <Forcefield>
MMFF

> <ForcefieldBase>
MMFF

> <ForcefieldFFML>
<?xml version="1.0" encoding="UTF-8"?>
<!DOCTYPE ffml SYSTEM "Ffml.dtd">
<ffml version="1.0">
<forcefield name="MMFF" derivedFrom="MMFF" base="MMFF">
<atomTypes>
<atomType
name="F100"
element="F"
mass="18.998"
annotation=""/>
<atomType
name="C101"
element="C"
mass="12.011"
annotation=""/>
<atomType
name="N102"
element="N"
mass="14.007"
annotation=""/>
<atomType
name="O103"
element="O"
mass="16"
annotation=""/>
<atomType
name="S104"
element="S"
mass="32.066"
annotation=""/>
<atomType
name="H105"
element="H"
mass="1.008"
annotation=""/>
</atomTypes>
<parameters>
</parameters>
</forcefield>
</ffml>

> <Initial Potential Energy>
518.45727

> <Initial RMS Gradient>
231.85775

> <Minimization Criteria>
STEEPD> Minimization exiting with gradient tolerance ( 3.0000000) satisfied.

> <CHARMm Energy>
75.04782

> <Potential Energy>
75.04782

> <RMS Gradient>
0.06905

> <Bond Energy>
7.88459

> <Angle Energy>
7.72432

> <STRBend>
0.4028

> <Dihedral Energy>
3.44648

> <OOPLane>
0.10411

> <Van der Waals Energy>
57.83747

> <Electrostatic Energy>
-2.35196

> <Hydrogen Bond Energy>
0

> <Solvation Free Energy>
0

> <HasGasteigerCharges>
true

> <REMARK99>
REMARK  99  MacroMolecule created from Mol2 file
REMARK  99  CHEMBL5087046
REMARK  99  PROTEIN
REMARK  99  GASTEIGER
REMARK  99
REMARK  99

$$$$
CHEMBL1801738
  SciTegic05292516403D

 61 66  0  0  0  0            999 V2000
   18.5602   -9.6136   -0.3863 C   0  0
   19.0973   -8.3061   -0.2992 C   0  0
   19.3431  -10.8510   -0.5303 C   0  0
   20.5300   -7.9633   -0.2976 C   0  0
   21.1266   -7.4036   -1.4514 C   0  0
   21.2885   -8.0632    0.8817 C   0  0
   22.4311   -6.8978   -1.4270 C   0  0
   17.1549   -9.7613   -0.3366 C   0  0
   18.2053   -7.2141   -0.1787 C   0  0
   16.2966   -8.6667   -0.2159 C   0  0
   16.8244   -7.3892   -0.1393 C   0  0
   23.1359   -6.9470   -0.2342 C   0  0
   22.5847   -7.5631    0.8957 C   0  0
   23.5108   -7.4699    2.0697 C   0  0
   24.8329   -7.0450    1.4117 C   0  0
   24.4904   -6.3615    0.0702 C   0  0  2  0  0  0
   24.5654   -4.9026    0.1197 N   0  0
   24.1194   -2.7218    0.2890 N   0  0
   25.7463   -4.2327   -0.1494 C   0  0
   23.6156   -3.9375    0.4289 C   0  0
   25.4307   -2.8881   -0.0547 C   0  0
   27.9132   -3.8450   -0.6690 C   0  0
   26.9510   -4.7700   -0.4393 N   0  0
   26.4412   -1.9424   -0.2927 C   0  0
   27.7099   -2.4618   -0.6044 C   0  0
   22.2068   -4.1933    0.8676 C   0  0
   26.2306   -0.4612   -0.2122 C   0  0
   21.5065   -2.9330    1.3626 C   0  0
   20.6780  -10.9442   -0.8205 N   0  0
   21.0642  -12.2239   -0.8816 N   0  0
   19.9647  -12.9240   -0.6506 N   0  0
   18.8895  -12.0957   -0.4402 N   0  0
   29.2903   -4.3806   -0.9800 C   0  0
   30.1244   -4.5409    0.2812 C   0  0
   20.5456   -7.3087   -2.3690 H   0  0
   20.8476   -8.4684    1.7908 H   0  0
   22.8550   -6.4267   -2.3102 H   0  0
   16.7152  -10.7556   -0.3965 H   0  0
   18.5937   -6.1988   -0.1036 H   0  0
   15.2217   -8.8164   -0.1817 H   0  0
   16.1775   -6.5224   -0.0435 H   0  0
   23.1612   -6.7094    2.7744 H   0  0
   23.6153   -8.4282    2.5868 H   0  0
   25.4409   -6.4265    2.0807 H   0  0
   25.4180   -7.9516    1.2013 H   0  0
   25.1951   -6.6952   -0.7020 H   0  0
   28.5394   -1.7809   -0.7894 H   0  0
   21.6254   -4.5934    0.0326 H   0  0
   22.1960   -4.9152    1.6864 H   0  0
   26.8542   -0.0350    0.5800 H   0  0
   25.1867   -0.2183    0.0093 H   0  0
   26.4921    0.0095   -1.1652 H   0  0
   20.4880   -3.1700    1.6866 H   0  0
   21.4419   -2.1772    0.5724 H   0  0
   22.0386   -2.4914    2.2122 H   0  0
   21.3603  -10.2203   -0.9916 H   0  0
   29.1930   -5.3524   -1.4790 H   0  0
   29.7995   -3.7165   -1.6883 H   0  0
   31.1114   -4.9443    0.0339 H   0  0
   29.6446   -5.2257    0.9888 H   0  0
   30.2676   -3.5807    0.7882 H   0  0
  1  2  1  0
  2  4  1  0
  3  1  1  0
  3 29  1  0
  4  5  2  0
  5  7  1  0
  5 35  1  0
  6  4  1  0
  6 13  2  0
  6 36  1  0
  7 12  2  0
  7 37  1  0
  8  1  2  0
  8 10  1  0
  8 38  1  0
  9  2  2  0
  9 39  1  0
 10 11  2  0
 10 40  1  0
 11  9  1  0
 11 41  1  0
 12 13  1  0
 13 14  1  0
 14 15  1  0
 14 42  1  0
 14 43  1  0
 15 16  1  0
 15 44  1  0
 15 45  1  0
 16 12  1  0
 16 17  1  0
 16 46  1  0
 17 19  1  0
 18 20  2  0
 18 21  1  0
 19 21  2  0
 19 23  1  0
 20 17  1  0
 21 24  1  0
 22 33  1  0
 23 22  2  0
 24 25  2  0
 25 22  1  0
 25 47  1  0
 26 20  1  0
 26 48  1  0
 26 49  1  0
 27 24  1  0
 27 50  1  0
 27 51  1  0
 27 52  1  0
 28 26  1  0
 28 53  1  0
 28 54  1  0
 28 55  1  0
 29 30  1  0
 29 56  1  0
 30 31  2  0
 31 32  1  0
 32  3  2  0
 33 34  1  0
 33 57  1  0
 33 58  1  0
 34 59  1  0
 34 60  1  0
 34 61  1  0
M  END
> <Name>
CHEMBL1801738

> <Clean Energy>
92.930298

> <chembl_id>
CHEMBL1801738

> <chembl_pref_name>
None

> <efficacy>
0.282608696

> <Forcefield>
MMFF

> <ForcefieldBase>
MMFF

> <ForcefieldFFML>
<?xml version="1.0" encoding="UTF-8"?>
<!DOCTYPE ffml SYSTEM "Ffml.dtd">
<ffml version="1.0">
<forcefield name="MMFF" derivedFrom="MMFF" base="MMFF">
<atomTypes>
<atomType
name="C100"
element="C"
mass="12.011"
annotation=""/>
<atomType
name="N101"
element="N"
mass="14.007"
annotation=""/>
<atomType
name="H102"
element="H"
mass="1.008"
annotation=""/>
</atomTypes>
<parameters>
</parameters>
</forcefield>
</ffml>

> <Initial Potential Energy>
242.11585

> <Initial RMS Gradient>
36.94605

> <Minimization Criteria>
CONJUG> Minimization exiting with gradient tolerance ( 0.0100000) satisfied.

> <CHARMm Energy>
86.49482

> <Potential Energy>
86.49482

> <RMS Gradient>
0.00952

> <Bond Energy>
8.39241

> <Angle Energy>
16.65658

> <STRBend>
-0.51764

> <Dihedral Energy>
4.25775

> <OOPLane>
0.18834

> <Van der Waals Energy>
57.0012

> <Electrostatic Energy>
0.51618

> <Hydrogen Bond Energy>
0

> <Solvation Free Energy>
0

> <HasGasteigerCharges>
true

> <REMARK99>
REMARK  99  MacroMolecule created from Mol2 file
REMARK  99  CHEMBL1801738
REMARK  99  PROTEIN
REMARK  99  GASTEIGER
REMARK  99
REMARK  99

$$$$
CHEMBL2206304
  SciTegic05292516403D

 59 61  0  0  0  0            999 V2000
   29.5719   -0.9340    0.5351 C   0  0
   18.7724   -8.4743   -1.1104 C   0  0
   18.7506   -9.7759   -0.5936 C   0  0
   19.8783  -10.3275    0.0332 C   0  0
   19.9185   -7.6755   -1.0220 C   0  0
   21.0126   -8.2598   -0.3949 C   0  0
   21.0317   -9.5396    0.1284 C   0  0
   22.2592   -9.8039    0.6736 N   0  0
   22.9413   -8.6941    0.4696 C   0  0
   22.2394   -7.7085   -0.1801 O   0  0
   24.2287   -8.4110    0.8038 N   0  0
   24.8651   -7.1557    0.2830 C   0  0
   26.0485   -6.5903    1.1189 C   0  0
   26.6859   -5.2506    0.7154 C   0  0
   27.5048   -4.5716    1.6437 C   0  0
   28.1851   -3.3667    1.3256 C   0  0
   28.0773   -2.7984    0.0593 C   0  0
   27.2633   -3.4652   -0.8687 C   0  0
   26.5818   -4.6704   -0.5539 C   0  0
   28.6973   -1.6463   -0.3863 O   0  0
   30.2753    0.3121   -0.1200 C   0  0
   31.2538    0.0720   -0.8951 O   0  5
   29.8841    1.4578    0.2773 O   0  0
   25.0520   -9.5074    1.3092 C   0  0
   25.7367  -10.2577    0.1638 C   0  0
   26.5935  -11.4103    0.6898 C   0  0
   27.2847  -12.1575   -0.4531 C   0  0
   28.1445  -13.3070    0.0772 C   0  0
   28.7776  -14.1519   -1.0303 C   0  0
   29.7966  -13.3929   -1.8661 C   0  0
   30.3627   -1.6110    0.8796 H   0  0
   28.9814   -0.5925    1.3933 H   0  0
   17.8807   -8.0747   -1.5901 H   0  0
   17.8447  -10.3711   -0.6779 H   0  0
   19.8665  -11.3337    0.4359 H   0  0
   19.9551   -6.6679   -1.4154 H   0  0
   25.2027   -7.3474   -0.7429 H   0  0
   24.1150   -6.3567    0.2273 H   0  0
   25.7034   -6.4955    2.1569 H   0  0
   26.8619   -7.3265    1.1166 H   0  0
   27.6407   -4.9801    2.6442 H   0  0
   28.7983   -2.9030    2.0920 H   0  0
   27.1657   -3.0441   -1.8679 H   0  0
   25.9877   -5.1344   -1.3365 H   0  0
   25.8055   -9.1185    2.0031 H   0  0
   24.4504  -10.2051    1.9067 H   0  0
   24.9822  -10.6480   -0.5303 H   0  0
   26.3662   -9.5671   -0.4104 H   0  0
   27.3490  -11.0199    1.3826 H   0  0
   25.9635  -12.1068    1.2564 H   0  0
   26.5293  -12.5514   -1.1437 H   0  0
   27.9060  -11.4531   -1.0174 H   0  0
   28.9304  -12.9102    0.7315 H   0  0
   27.5214  -13.9650    0.6956 H   0  0
   29.2780  -15.0111   -0.5678 H   0  0
   27.9964  -14.5553   -1.6850 H   0  0
   30.2835  -14.0727   -2.5727 H   0  0
   30.5722  -12.9496   -1.2337 H   0  0
   29.3249  -12.5950   -2.4471 H   0  0
  1 21  1  0
  1 31  1  0
  1 32  1  0
  2  3  2  0
  2 33  1  0
  3  4  1  0
  3 34  1  0
  4  7  2  0
  4 35  1  0
  5  2  1  0
  5 36  1  0
  6  5  2  0
  6  7  1  0
  7  8  1  0
  8  9  2  0
  9 10  1  0
  9 11  1  0
 10  6  1  0
 11 12  1  0
 11 24  1  0
 12 13  1  0
 12 37  1  0
 12 38  1  0
 13 14  1  0
 13 39  1  0
 13 40  1  0
 14 15  2  0
 15 16  1  0
 15 41  1  0
 16 17  2  0
 16 42  1  0
 17 18  1  0
 17 20  1  0
 18 19  2  0
 18 43  1  0
 19 14  1  0
 19 44  1  0
 20  1  1  0
 21 22  1  0
 21 23  2  0
 24 25  1  0
 24 45  1  0
 24 46  1  0
 25 26  1  0
 25 47  1  0
 25 48  1  0
 26 27  1  0
 26 49  1  0
 26 50  1  0
 27 28  1  0
 27 51  1  0
 27 52  1  0
 28 29  1  0
 28 53  1  0
 28 54  1  0
 29 30  1  0
 29 55  1  0
 29 56  1  0
 30 57  1  0
 30 58  1  0
 30 59  1  0
M  CHG  1  22  -1
M  END
> <Name>
CHEMBL2206304

> <Clean Energy>
31.5487

> <chembl_id>
CHEMBL2206304

> <chembl_pref_name>
None

> <efficacy>
0.37

> <Forcefield>
MMFF

> <ForcefieldBase>
MMFF

> <ForcefieldFFML>
<?xml version="1.0" encoding="UTF-8"?>
<!DOCTYPE ffml SYSTEM "Ffml.dtd">
<ffml version="1.0">
<forcefield name="MMFF" derivedFrom="MMFF" base="MMFF">
<atomTypes>
<atomType
name="C100"
element="C"
mass="12.011"
annotation=""/>
<atomType
name="N101"
element="N"
mass="14.007"
annotation=""/>
<atomType
name="O102"
element="O"
mass="16"
annotation=""/>
<atomType
name="H103"
element="H"
mass="1.008"
annotation=""/>
</atomTypes>
<parameters>
</parameters>
</forcefield>
</ffml>

> <Initial Potential Energy>
128.14685

> <Initial RMS Gradient>
27.5587

> <Minimization Criteria>
CONJUG> Minimization exiting with gradient tolerance ( 0.0100000) satisfied.

> <CHARMm Energy>
55.37816

> <Potential Energy>
55.37816

> <RMS Gradient>
0.00923

> <Bond Energy>
9.21499

> <Angle Energy>
19.04753

> <STRBend>
1.82886

> <Dihedral Energy>
-11.60365

> <OOPLane>
0.92012

> <Van der Waals Energy>
46.02214

> <Electrostatic Energy>
-10.05184

> <Hydrogen Bond Energy>
0

> <Solvation Free Energy>
0

> <HasGasteigerCharges>
true

> <REMARK99>
REMARK  99  MacroMolecule created from Mol2 file
REMARK  99  CHEMBL2206304
REMARK  99  PROTEIN
REMARK  99  GASTEIGER
REMARK  99
REMARK  99

$$$$
CHEMBL4247103
  SciTegic05292516403D

 72 76  0  0  0  0            999 V2000
   11.6781   -3.9225    2.2636 C   0  0
   11.4212   -5.2847    2.1292 C   0  0
   12.3822   -6.1005    1.5357 C   0  0
   13.5945   -5.5545    1.0766 C   0  0
   13.8788   -4.1819    1.1969 C   0  0
   12.8919   -3.3815    1.8049 C   0  0
   15.1469   -3.5954    0.6887 C   0  0
   16.4050   -4.1591    0.9712 C   0  0
   17.6074   -3.5947    0.4864 C   0  0
   17.5795   -2.4478   -0.3015 C   0  0
   16.3367   -1.8774   -0.5919 C   0  0
   15.1435   -2.4394   -0.1070 C   0  0
   18.6484   -1.7870   -0.8445 O   0  0
   19.9932   -2.2855   -0.6690 C   0  0  2  0  0  0
   20.9409   -1.0822   -0.8753 C   0  0
   20.2824   -3.3658   -1.7251 C   0  0
   22.1578   -1.1141   -0.7230 O   0  0
   20.3014    0.0545   -1.2562 O   0  0
   21.6614   -3.9793   -1.6360 C   0  0
   22.6569   -3.6009   -2.5436 C   0  0
   23.9633   -4.0915   -2.4198 C   0  0
   24.3170   -4.9922   -1.4013 C   0  0
   23.3044   -5.3855   -0.5124 C   0  0
   21.9969   -4.8867   -0.6244 C   0  0
   25.7005   -5.5018   -1.2829 C   0  0
   26.4047   -5.9285   -2.4172 C   0  0
   27.7177   -6.3964   -2.3195 C   0  0
   28.3702   -6.4591   -1.0868 C   0  0
   27.6871   -6.0585    0.0552 C   0  0
   26.3688   -5.5776   -0.0471 C   0  0
   29.6341   -6.9652   -1.1554 O   0  0
   30.5568   -6.8171   -0.0516 C   0  0  1  0  0  0
   30.6275   -8.1553    0.6837 C   0  0
   30.1862   -9.2029   -0.0641 O   0  0
   31.0978   -8.3234    1.8004 O   0  0
   31.9242   -6.4972   -0.6742 C   0  0
   32.9146   -5.8593    0.2704 C   0  0
   33.0085   -4.4632    0.3576 C   0  0
   33.9141   -3.8647    1.2343 C   0  0
   34.7335   -4.6562    2.0346 C   0  0
   34.6491   -6.0448    1.9574 C   0  0
   33.7461   -6.6445    1.0785 C   0  0
   10.9382   -3.2730    2.7256 H   0  0
   10.4788   -5.7067    2.4824 H   0  0
   12.1942   -7.1652    1.4193 H   0  0
   14.3117   -6.2198    0.6003 H   0  0
   13.0640   -2.3145    1.9360 H   0  0
   16.4682   -5.0504    1.5943 H   0  0
   18.5375   -4.0863    0.7526 H   0  0
   16.2806   -0.9834   -1.2092 H   0  0
   14.1998   -1.9646   -0.3728 H   0  0
   20.1474   -2.6220    0.3625 H   0  0
   19.5431   -4.1735   -1.6543 H   0  0
   20.1297   -2.9438   -2.7280 H   0  0
   19.3322   -0.0939   -1.3014 H   0  0
   22.4465   -2.8835   -3.3317 H   0  0
   24.7213   -3.7332   -3.1158 H   0  0
   23.5292   -6.0920    0.2848 H   0  0
   21.2573   -5.2144    0.1005 H   0  0
   25.9297   -5.9097   -3.3967 H   0  0
   28.2294   -6.7121   -3.2248 H   0  0
   28.1301   -6.1118    1.0445 H   0  0
   25.8665   -5.2477    0.8613 H   0  0
   30.2433   -6.0271    0.6372 H   0  0
   29.7943   -8.8641   -0.8993 H   0  0
   32.3716   -7.4040   -1.1047 H   0  0
   31.7857   -5.8276   -1.5346 H   0  0
   32.3690   -3.8291   -0.2542 H   0  0
   33.9762   -2.7814    1.2948 H   0  0
   35.4369   -4.1925    2.7211 H   0  0
   35.2851   -6.6635    2.5860 H   0  0
   33.6907   -7.7309    1.0421 H   0  0
  1  2  2  0
  1 43  1  0
  2  3  1  0
  2 44  1  0
  3  4  2  0
  3 45  1  0
  4  5  1  0
  4 46  1  0
  5  6  2  0
  5  7  1  0
  6  1  1  0
  6 47  1  0
  7  8  2  0
  8  9  1  0
  8 48  1  0
  9 10  2  0
  9 49  1  0
 10 11  1  0
 10 13  1  0
 11 12  2  0
 11 50  1  0
 12  7  1  0
 12 51  1  0
 13 14  1  0
 14 15  1  0
 14 16  1  0
 14 52  1  0
 15 17  2  0
 15 18  1  0
 16 19  1  0
 16 53  1  0
 16 54  1  0
 18 55  1  0
 19 20  2  0
 20 21  1  0
 20 56  1  0
 21 22  2  0
 21 57  1  0
 22 23  1  0
 22 25  1  0
 23 24  2  0
 23 58  1  0
 24 19  1  0
 24 59  1  0
 25 26  2  0
 26 27  1  0
 26 60  1  0
 27 28  2  0
 27 61  1  0
 28 29  1  0
 28 31  1  0
 29 30  2  0
 29 62  1  0
 30 25  1  0
 30 63  1  0
 31 32  1  0
 32 33  1  0
 32 36  1  0
 32 64  1  0
 33 34  1  0
 33 35  2  0
 34 65  1  0
 36 37  1  0
 36 66  1  0
 36 67  1  0
 37 38  2  0
 38 39  1  0
 38 68  1  0
 39 40  2  0
 39 69  1  0
 40 41  1  0
 40 70  1  0
 41 42  2  0
 41 71  1  0
 42 37  1  0
 42 72  1  0
M  END
> <Name>
CHEMBL4247103

> <Clean Energy>
41.3615

> <chembl_id>
CHEMBL4247103

> <chembl_pref_name>
None

> <efficacy>
0.37

> <Forcefield>
MMFF

> <ForcefieldBase>
MMFF

> <ForcefieldFFML>
<?xml version="1.0" encoding="UTF-8"?>
<!DOCTYPE ffml SYSTEM "Ffml.dtd">
<ffml version="1.0">
<forcefield name="MMFF" derivedFrom="MMFF" base="MMFF">
<atomTypes>
<atomType
name="C100"
element="C"
mass="12.011"
annotation=""/>
<atomType
name="O101"
element="O"
mass="16"
annotation=""/>
<atomType
name="H102"
element="H"
mass="1.008"
annotation=""/>
</atomTypes>
<parameters>
</parameters>
</forcefield>
</ffml>

> <Initial Potential Energy>
270.70327

> <Initial RMS Gradient>
32.86368

> <Minimization Criteria>
STEEPD> Minimization exiting with gradient tolerance ( 3.0000000) satisfied.

> <CHARMm Energy>
117.70348

> <Potential Energy>
117.70348

> <RMS Gradient>
0.02939

> <Bond Energy>
12.96518

> <Angle Energy>
24.52254

> <STRBend>
-0.3817

> <Dihedral Energy>
9.52796

> <OOPLane>
0.16078

> <Van der Waals Energy>
92.30419

> <Electrostatic Energy>
-21.39546

> <Hydrogen Bond Energy>
0

> <Solvation Free Energy>
0

> <HasGasteigerCharges>
true

> <REMARK99>
REMARK  99  MacroMolecule created from Mol2 file
REMARK  99  CHEMBL4247103
REMARK  99  PROTEIN
REMARK  99  GASTEIGER
REMARK  99
REMARK  99

$$$$
CHEMBL4557173
  SciTegic05292516403D

 55 57  0  0  0  0            999 V2000
   48.6808  -26.3670    1.3174 C   0  0
   48.3816  -25.5731    0.0398 C   0  0
   48.6111  -26.3558   -1.2593 C   0  0
   35.8218  -25.2018    0.2978 C   0  0
   35.9211  -26.5955    0.3856 C   0  0
   37.1672  -27.2332    0.3040 C   0  0
   38.3489  -26.4930    0.1450 C   0  0
   38.2494  -25.0975    0.0595 C   0  0
   36.9997  -24.4638    0.1419 C   0  0
   34.5885  -24.5252    0.4310 N   0  0
   33.7649  -24.9137   -0.4280 N   0  0
   32.5086  -24.2920   -0.2665 C   0  0
   32.3441  -22.8987   -0.2642 C   0  0
   31.0689  -22.3236   -0.1559 C   0  0
   29.9343  -23.1375   -0.0566 C   0  0
   30.0884  -24.5278   -0.0642 C   0  0
   31.3650  -25.0957   -0.1731 C   0  0
   39.6619  -27.2436    0.0654 C   0  0
   40.9204  -26.3838    0.0641 C   0  0
   42.0641  -27.2407    0.0497 O   0  0
   43.2814  -26.6169    0.0579 C   0  0
   44.3800  -27.4758    0.0685 C   0  0
   45.6864  -26.9725    0.0774 C   0  0
   45.9065  -25.6001    0.0738 C   0  0
   44.8023  -24.7431    0.0649 C   0  0
   43.4969  -25.2415    0.0561 C   0  0
   47.0944  -24.9432    0.0816 O   0  0
   49.3681  -24.3855    0.0180 C   0  0
   50.6639  -24.7754   -0.0190 O   0  0
   49.1217  -23.1896    0.0303 O   0  0
   28.6229  -22.5549    0.0416 C   0  0
   27.5612  -22.0894    0.1170 N   0  0
   48.0380  -27.2402    1.4391 H   0  0
   48.5243  -25.7405    2.2037 H   0  0
   49.7150  -26.7276    1.3400 H   0  0
   48.3789  -25.7306   -2.1297 H   0  0
   47.9844  -27.2455   -1.3389 H   0  0
   49.6494  -26.6918   -1.3550 H   0  0
   35.0216  -27.1908    0.5248 H   0  0
   37.2042  -28.3187    0.3727 H   0  0
   39.1306  -24.4718   -0.0667 H   0  0
   36.9420  -23.3792    0.0851 H   0  0
   33.2190  -22.2583   -0.3549 H   0  0
   30.9658  -21.2389   -0.1577 H   0  0
   29.2172  -25.1780    0.0070 H   0  0
   31.4745  -26.1782   -0.1883 H   0  0
   39.7200  -27.9403    0.9123 H   0  0
   39.6566  -27.8638   -0.8404 H   0  0
   40.9281  -25.7496   -0.8312 H   0  0
   40.9388  -25.7620    0.9682 H   0  0
   44.2134  -28.5503    0.0712 H   0  0
   46.4919  -27.6950    0.0881 H   0  0
   44.9594  -23.6660    0.0634 H   0  0
   42.6827  -24.5251    0.0478 H   0  0
   51.1702  -23.9336   -0.0278 H   0  0
  1 33  1  0
  1 34  1  0
  1 35  1  0
  2  1  1  0
  2 28  1  0
  3  2  1  0
  3 36  1  0
  3 37  1  0
  3 38  1  0
  4  5  2  0
  4 10  1  0
  5  6  1  0
  5 39  1  0
  6  7  2  0
  6 40  1  0
  7  8  1  0
  7 18  1  0
  8  9  2  0
  8 41  1  0
  9  4  1  0
  9 42  1  0
 10 11  2  0
 11 12  1  0
 12 13  2  0
 13 14  1  0
 13 43  1  0
 14 15  2  0
 14 44  1  0
 15 16  1  0
 15 31  1  0
 16 17  2  0
 16 45  1  0
 17 12  1  0
 17 46  1  0
 18 19  1  0
 18 47  1  0
 18 48  1  0
 19 20  1  0
 19 49  1  0
 19 50  1  0
 20 21  1  0
 21 22  2  0
 22 23  1  0
 22 51  1  0
 23 24  2  0
 23 52  1  0
 24 25  1  0
 24 27  1  0
 25 26  2  0
 25 53  1  0
 26 21  1  0
 26 54  1  0
 27  2  1  0
 28 29  1  0
 28 30  2  0
 29 55  1  0
 31 32  3  0
M  END
> <Name>
CHEMBL4557173

> <Clean Energy>
101.324997

> <chembl_id>
CHEMBL4557173

> <chembl_pref_name>
None

> <efficacy>
0.12

> <Forcefield>
MMFF

> <ForcefieldBase>
MMFF

> <ForcefieldFFML>
<?xml version="1.0" encoding="UTF-8"?>
<!DOCTYPE ffml SYSTEM "Ffml.dtd">
<ffml version="1.0">
<forcefield name="MMFF" derivedFrom="MMFF" base="MMFF">
<atomTypes>
<atomType
name="C100"
element="C"
mass="12.011"
annotation=""/>
<atomType
name="N101"
element="N"
mass="14.007"
annotation=""/>
<atomType
name="O102"
element="O"
mass="16"
annotation=""/>
<atomType
name="H103"
element="H"
mass="1.008"
annotation=""/>
</atomTypes>
<parameters>
</parameters>
</forcefield>
</ffml>

> <Initial Potential Energy>
410.91821

> <Initial RMS Gradient>
33.8593

> <Minimization Criteria>
STEEPD> Minimization exiting with gradient tolerance ( 3.0000000) satisfied.

> <CHARMm Energy>
104.45174

> <Potential Energy>
104.45174

> <RMS Gradient>
0.01444

> <Bond Energy>
6.79556

> <Angle Energy>
25.5496

> <STRBend>
-0.04342

> <Dihedral Energy>
5.9005

> <OOPLane>
0.04015

> <Van der Waals Energy>
64.96087

> <Electrostatic Energy>
1.24849

> <Hydrogen Bond Energy>
0

> <Solvation Free Energy>
0

> <HasGasteigerCharges>
true

> <REMARK99>
REMARK  99  MacroMolecule created from Mol2 file
REMARK  99  CHEMBL4557173
REMARK  99  PROTEIN
REMARK  99  GASTEIGER
REMARK  99
REMARK  99

$$$$
CHEMBL1169712
  SciTegic05292516403D

 42 44  0  0  0  0            999 V2000
    6.1701   -9.7054   -1.0451 C   0  0
    6.0303   -8.4142   -0.7259 N   0  0
    4.7813   -7.9062   -0.6541 C   0  0
    3.6843   -8.7059   -0.9112 C   0  0
    3.9296  -10.0392   -1.1997 C   0  0
    5.1739  -10.5573   -1.2813 N   0  0
    2.6169  -11.2201   -1.4659 S   0  0
    3.1962  -12.5143   -0.3255 C   0  0
    2.0484  -13.3510    0.1775 C   0  0
    1.7266  -14.5699   -0.4324 C   0  0
    0.6552  -15.3277    0.0385 C   0  0
   -0.1056  -14.8728    1.1149 C   0  0
    0.1989  -13.6581    1.7225 C   0  0
    1.2701  -12.8994    1.2554 C   0  0
    4.8002   -6.5912   -0.3075 N   0  0
    3.7194   -5.6433   -0.1978 C   0  0
    4.2821   -4.2876    0.1560 C   0  0
    4.7385   -3.4229   -0.8502 C   0  0
    5.2843   -2.1842   -0.5189 C   0  0
    5.3856   -1.8060    0.8189 C   0  0
    4.9457   -2.6596    1.8280 C   0  0
    4.4004   -3.8997    1.4988 C   0  0
    2.3142   -8.2265   -0.8119 C   0  0
    1.8503   -7.8556   -2.0180 O   0  0
    1.6490   -8.1506    0.2023 O   0  0
    7.1819  -10.0904   -1.1098 H   0  0
    3.9336  -13.1425   -0.8377 H   0  0
    3.7038  -12.0687    0.5387 H   0  0
    2.3053  -14.9324   -1.2788 H   0  0
    0.4101  -16.2748   -0.4362 H   0  0
   -0.9405  -15.4661    1.4769 H   0  0
   -0.3977  -13.2943    2.5546 H   0  0
    1.4921  -11.9451    1.7301 H   0  0
    5.7409   -6.2367   -0.1643 H   0  0
    3.1674   -5.5656   -1.1414 H   0  0
    3.0110   -5.9470    0.5805 H   0  0
    4.6740   -3.7198   -1.8947 H   0  0
    5.6340   -1.5113   -1.2991 H   0  0
    5.8132   -0.8415    1.0758 H   0  0
    5.0314   -2.3590    2.8692 H   0  0
    4.0706   -4.5693    2.2914 H   0  0
    0.9105   -7.6196   -1.8665 H   0  0
  1  2  1  0
  1  6  2  0
  1 26  1  0
  2  3  2  0
  3  4  1  0
  3 15  1  0
  4  5  2  0
  4 23  1  0
  5  6  1  0
  5  7  1  0
  7  8  1  0
  8  9  1  0
  8 27  1  0
  8 28  1  0
  9 10  1  0
  9 14  2  0
 10 11  2  0
 10 29  1  0
 11 12  1  0
 11 30  1  0
 12 13  2  0
 12 31  1  0
 13 14  1  0
 13 32  1  0
 14 33  1  0
 15 16  1  0
 15 34  1  0
 16 17  1  0
 16 35  1  0
 16 36  1  0
 17 18  1  0
 17 22  2  0
 18 19  2  0
 18 37  1  0
 19 20  1  0
 19 38  1  0
 20 21  2  0
 20 39  1  0
 21 22  1  0
 21 40  1  0
 22 41  1  0
 23 24  1  0
 23 25  2  0
 24 42  1  0
M  END
> <Name>
CHEMBL1169712

> <Clean Energy>
15.7778

> <chembl_id>
CHEMBL1169712

> <chembl_pref_name>
None

> <efficacy>
0.33

> <Forcefield>
MMFF

> <ForcefieldBase>
MMFF

> <ForcefieldFFML>
<?xml version="1.0" encoding="UTF-8"?>
<!DOCTYPE ffml SYSTEM "Ffml.dtd">
<ffml version="1.0">
<forcefield name="MMFF" derivedFrom="MMFF" base="MMFF">
<atomTypes>
<atomType
name="C100"
element="C"
mass="12.011"
annotation=""/>
<atomType
name="N101"
element="N"
mass="14.007"
annotation=""/>
<atomType
name="S102"
element="S"
mass="32.066"
annotation=""/>
<atomType
name="O103"
element="O"
mass="16"
annotation=""/>
<atomType
name="H104"
element="H"
mass="1.008"
annotation=""/>
</atomTypes>
<parameters>
</parameters>
</forcefield>
</ffml>

> <Initial Potential Energy>
117.61885

> <Initial RMS Gradient>
36.71435

> <Minimization Criteria>
STEEPD> Minimization exiting with gradient tolerance ( 3.0000000) satisfied.

> <CHARMm Energy>
-16.29189

> <Potential Energy>
-16.29189

> <RMS Gradient>
0.04763

> <Bond Energy>
4.09034

> <Angle Energy>
19.23845

> <STRBend>
-1.82583

> <Dihedral Energy>
13.76038

> <OOPLane>
0.06006

> <Van der Waals Energy>
48.56165

> <Electrostatic Energy>
-100.17693

> <Hydrogen Bond Energy>
0

> <Solvation Free Energy>
0

> <HasGasteigerCharges>
true

> <REMARK99>
REMARK  99  MacroMolecule created from Mol2 file
REMARK  99  CHEMBL1169712
REMARK  99  PROTEIN
REMARK  99  GASTEIGER
REMARK  99
REMARK  99

$$$$
CHEMBL1080699
  SciTegic05292516403D

 65 68  0  0  0  0            999 V2000
   17.6854   -4.7724    0.3429 C   0  0
   17.6291   -6.1416    0.6287 C   0  0
   18.8050   -6.8765    0.8107 C   0  0
   20.0398   -6.2466    0.7006 C   0  0
   20.1087   -4.8752    0.4628 C   0  0
   18.9331   -4.1268    0.2800 C   0  0
   19.0182   -2.6474    0.0238 C   0  0
   16.5764   -3.9823    0.1542 O   0  0
   15.4181   -4.6497   -0.3278 C   0  0
   14.2995   -3.7158   -0.7904 C   0  0
   13.4891   -4.2982   -1.7236 O   0  0
   14.0609   -2.5938   -0.3676 O   0  0
   21.1956   -6.9516    0.9124 O   0  0
   21.6376   -7.5725   -0.3054 C   0  0
   23.0455   -8.0166   -0.1056 C   0  0
   23.2647   -9.3706   -0.0684 O   0  0
   24.6280   -9.5067    0.0580 C   0  0
   25.1561   -8.2286    0.1335 C   0  0
   24.1507   -7.2980   -0.0213 N   0  0
   26.5379   -7.8460    0.3227 C   0  0
   27.3656   -8.4857    1.2475 C   0  0
   28.3820   -6.3833   -0.3252 N   0  0
   27.0874   -6.7907   -0.4072 C   0  0
   25.1228  -10.8763    0.0215 C   0  0
   24.4042  -11.9164    0.6283 C   0  0
   24.8544  -13.2438    0.5689 C   0  0
   26.0348  -13.5537   -0.1032 C   0  0
   26.7551  -12.5228   -0.7120 C   0  0
   26.3061  -11.1982   -0.6520 C   0  0
   26.5907  -14.7911   -0.2492 O   0  0
   25.9513  -15.8891    0.3780 C   0  0
   26.6872  -17.0047    0.1660 F   0  0
   25.8486  -15.7025    1.7116 F   0  0
   24.7218  -16.1060   -0.1412 F   0  0
   29.1513   -7.0723    0.5423 C   0  0
   28.6950   -8.0901    1.3659 C   0  0
   30.4858   -6.7462    0.5882 O   0  0
   31.1814   -7.4516   -0.4535 C   0  0
   32.4059   -8.1040    0.1811 C   0  0
   31.6042   -6.4480   -1.5215 C   0  0
   16.6868   -6.6641    0.7472 H   0  0
   18.7361   -7.9292    1.0620 H   0  0
   21.0786   -4.3855    0.4303 H   0  0
   18.5627   -2.4033   -0.9413 H   0  0
   20.0579   -2.3048   -0.0042 H   0  0
   18.5069   -2.0949    0.8186 H   0  0
   15.7023   -5.2756   -1.1831 H   0  0
   14.9830   -5.2691    0.4652 H   0  0
   13.8371   -5.1636   -2.0199 H   0  0
   20.9934   -8.4292   -0.5352 H   0  0
   21.6082   -6.8644   -1.1433 H   0  0
   26.9937   -9.2874    1.8799 H   0  0
   26.4846   -6.2365   -1.1216 H   0  0
   23.4774  -11.7022    1.1583 H   0  0
   24.2486  -14.0019    1.0574 H   0  0
   27.6737  -12.7486   -1.2498 H   0  0
   26.8903  -10.4325   -1.1583 H   0  0
   29.3640   -8.5762    2.0656 H   0  0
   30.5694   -8.2390   -0.9167 H   0  0
   32.9983   -8.6458   -0.5625 H   0  0
   32.1006   -8.8079    0.9628 H   0  0
   33.0454   -7.3566    0.6639 H   0  0
   32.1869   -6.9317   -2.3116 H   0  0
   32.2032   -5.6405   -1.0867 H   0  0
   30.7267   -5.9779   -1.9775 H   0  0
  1  2  2  0
  1  8  1  0
  2  3  1  0
  2 41  1  0
  3  4  2  0
  3 42  1  0
  4  5  1  0
  4 13  1  0
  5  6  2  0
  5 43  1  0
  6  1  1  0
  6  7  1  0
  7 44  1  0
  7 45  1  0
  7 46  1  0
  8  9  1  0
  9 10  1  0
  9 47  1  0
  9 48  1  0
 10 11  1  0
 10 12  2  0
 11 49  1  0
 13 14  1  0
 14 15  1  0
 14 50  1  0
 14 51  1  0
 15 16  1  0
 16 17  1  0
 17 18  2  0
 17 24  1  0
 18 19  1  0
 18 20  1  0
 19 15  2  0
 20 21  2  0
 21 36  1  0
 21 52  1  0
 22 23  2  0
 23 20  1  0
 23 53  1  0
 24 25  2  0
 25 26  1  0
 25 54  1  0
 26 27  2  0
 26 55  1  0
 27 28  1  0
 27 30  1  0
 28 29  2  0
 28 56  1  0
 29 24  1  0
 29 57  1  0
 30 31  1  0
 31 32  1  0
 31 33  1  0
 31 34  1  0
 35 22  1  0
 35 36  2  0
 35 37  1  0
 36 58  1  0
 37 38  1  0
 38 39  1  0
 38 40  1  0
 38 59  1  0
 39 60  1  0
 39 61  1  0
 39 62  1  0
 40 63  1  0
 40 64  1  0
 40 65  1  0
M  END
> <Name>
CHEMBL1080699

> <Clean Energy>
53.471901

> <chembl_id>
CHEMBL1080699

> <chembl_pref_name>
None

> <efficacy>
3e-005

> <Forcefield>
MMFF

> <ForcefieldBase>
MMFF

> <ForcefieldFFML>
<?xml version="1.0" encoding="UTF-8"?>
<!DOCTYPE ffml SYSTEM "Ffml.dtd">
<ffml version="1.0">
<forcefield name="MMFF" derivedFrom="MMFF" base="MMFF">
<atomTypes>
<atomType
name="C100"
element="C"
mass="12.011"
annotation=""/>
<atomType
name="O101"
element="O"
mass="16"
annotation=""/>
<atomType
name="N102"
element="N"
mass="14.007"
annotation=""/>
<atomType
name="F103"
element="F"
mass="18.998"
annotation=""/>
<atomType
name="H104"
element="H"
mass="1.008"
annotation=""/>
</atomTypes>
<parameters>
</parameters>
</forcefield>
</ffml>

> <Initial Potential Energy>
244.28476

> <Initial RMS Gradient>
30.28686

> <Minimization Criteria>
STEEPD> Minimization exiting with gradient tolerance ( 3.0000000) satisfied.

> <CHARMm Energy>
102.6802

> <Potential Energy>
102.6802

> <RMS Gradient>
0.07839

> <Bond Energy>
5.73447

> <Angle Energy>
22.47191

> <STRBend>
0.36292

> <Dihedral Energy>
19.66202

> <OOPLane>
0.21727

> <Van der Waals Energy>
67.56202

> <Electrostatic Energy>
-13.33042

> <Hydrogen Bond Energy>
0

> <Solvation Free Energy>
0

> <HasGasteigerCharges>
true

> <REMARK99>
REMARK  99  MacroMolecule created from Mol2 file
REMARK  99  CHEMBL1080699
REMARK  99  PROTEIN
REMARK  99  GASTEIGER
REMARK  99
REMARK  99

$$$$
CHEMBL489074
  SciTegic05292516403D

 45 47  0  0  0  0            999 V2000
    4.4635   -2.3392   -1.2525 C   0  0
    4.9626   -3.2950   -2.1381 C   0  0
    4.8853   -4.6487   -1.8178 C   0  0
    4.3082   -5.0488   -0.6137 C   0  0
    3.8097   -4.0946    0.2740 C   0  0
    3.8900   -2.7306   -0.0343 C   0  0
    3.3408   -1.6916    0.9154 C   0  0
    1.8520   -1.3859    0.6798 C   0  0  1  0  0  0
    1.0132   -2.2306    1.6423 C   0  0
    0.5653   -1.5368    2.7192 O   0  0
    0.7737   -3.4200    1.4950 O   0  0
    1.6553    0.0128    0.9622 O   0  0
    0.6165    0.6578    0.3448 C   0  0
    0.6566    2.0505    0.4420 C   0  0
   -0.3594    2.8339   -0.1117 C   0  0
   -0.4598    0.0502   -0.2997 C   0  0
   -1.4769    0.8335   -0.8566 C   0  0
   -1.4362    2.2316   -0.7725 C   0  0
   -2.5461    3.0704   -1.3644 C   0  0
   -3.7931    3.1231   -0.5116 C   0  0
   -4.8861    2.2911   -0.7954 C   0  0
   -6.0322    2.3311   -0.0001 C   0  0
   -6.0945    3.1975    1.0895 C   0  0
   -5.0136    4.0262    1.3847 C   0  0
   -3.8670    3.9879    0.5900 C   0  0
    4.5182   -1.2856   -1.5195 H   0  0
    5.4107   -2.9845   -3.0784 H   0  0
    5.2767   -5.3953   -2.5049 H   0  0
    4.2483   -6.1066   -0.3657 H   0  0
    3.3471   -4.4243    1.2028 H   0  0
    3.5197   -2.0175    1.9489 H   0  0
    3.9358   -0.7749    0.8033 H   0  0
    1.5703   -1.6115   -0.3552 H   0  0
    0.8034   -0.5872    2.6420 H   0  0
    1.4847    2.5359    0.9530 H   0  0
   -0.3072    3.9171   -0.0190 H   0  0
   -0.5617   -1.0278   -0.3778 H   0  0
   -2.3129    0.3405   -1.3493 H   0  0
   -2.1908    4.0945   -1.5411 H   0  0
   -2.7899    2.6856   -2.3638 H   0  0
   -4.8443    1.5994   -1.6340 H   0  0
   -6.8754    1.6837   -0.2270 H   0  0
   -6.9849    3.2228    1.7120 H   0  0
   -5.0632    4.6988    2.2371 H   0  0
   -3.0242    4.6289    0.8379 H   0  0
  1  6  1  0
  1 26  1  0
  2  1  2  0
  2 27  1  0
  3  2  1  0
  3  4  2  0
  3 28  1  0
  4  5  1  0
  4 29  1  0
  5  6  2  0
  5 30  1  0
  7  6  1  0
  7  8  1  0
  7 31  1  0
  7 32  1  0
  8 12  1  0
  8 33  1  0
  9  8  1  0
  9 10  1  0
  9 11  2  0
 10 34  1  0
 13 12  1  0
 14 13  2  0
 14 35  1  0
 15 14  1  0
 15 18  2  0
 15 36  1  0
 16 13  1  0
 16 37  1  0
 17 16  2  0
 17 18  1  0
 17 38  1  0
 19 18  1  0
 19 20  1  0
 19 39  1  0
 19 40  1  0
 21 20  2  0
 21 41  1  0
 22 21  1  0
 22 42  1  0
 23 22  2  0
 23 24  1  0
 23 43  1  0
 24 25  2  0
 24 44  1  0
 25 20  1  0
 25 45  1  0
M  END
> <Name>
CHEMBL489074

> <Clean Energy>
27.143999

> <chembl_id>
CHEMBL489074

> <chembl_pref_name>
None

> <efficacy>
0.4

> <Forcefield>
MMFF

> <ForcefieldBase>
MMFF

> <ForcefieldFFML>
<?xml version="1.0" encoding="UTF-8"?>
<!DOCTYPE ffml SYSTEM "Ffml.dtd">
<ffml version="1.0">
<forcefield name="MMFF" derivedFrom="MMFF" base="MMFF">
<atomTypes>
<atomType
name="C100"
element="C"
mass="12.011"
annotation=""/>
<atomType
name="O101"
element="O"
mass="16"
annotation=""/>
<atomType
name="H102"
element="H"
mass="1.008"
annotation=""/>
</atomTypes>
<parameters>
</parameters>
</forcefield>
</ffml>

> <Initial Potential Energy>
154.17977

> <Initial RMS Gradient>
31.90162

> <Minimization Criteria>
STEEPD> Minimization exiting with gradient tolerance ( 3.0000000) satisfied.

> <CHARMm Energy>
76.79588

> <Potential Energy>
76.79588

> <RMS Gradient>
0.0104

> <Bond Energy>
5.47196

> <Angle Energy>
9.24351

> <STRBend>
0.26668

> <Dihedral Energy>
2.18795

> <OOPLane>
0.03791

> <Van der Waals Energy>
54.1438

> <Electrostatic Energy>
5.44407

> <Hydrogen Bond Energy>
0

> <Solvation Free Energy>
0

> <HasGasteigerCharges>
true

> <REMARK99>
REMARK  99  MacroMolecule created from Mol2 file
REMARK  99  CHEMBL489074
REMARK  99  PROTEIN
REMARK  99  GASTEIGER
REMARK  99
REMARK  99

$$$$
CHEMBL1801713
  SciTegic05292516403D

 58 63  0  0  0  0            999 V2000
    2.9301   -3.5523    0.4995 C   0  0
    3.4919   -2.2735    0.2666 C   0  0
    3.6841   -4.7827    0.7922 C   0  0
    4.9275   -1.9469    0.2684 C   0  0
    5.5257   -1.3858    1.4203 C   0  0
    5.6838   -2.0510   -0.9120 C   0  0
    6.8318   -0.8833    1.3929 C   0  0
    1.5219   -3.6771    0.4523 C   0  0
    2.6225   -1.1887   -0.0009 C   0  0
    0.6862   -2.5900    0.1886 C   0  0
    1.2394   -1.3419   -0.0387 C   0  0
    7.5358   -0.9364    0.1993 C   0  0
    6.9808   -1.5531   -0.9289 C   0  0
    7.9039   -1.4611   -2.1053 C   0  0
    9.2313   -1.0598   -1.4437 C   0  0
    8.8931   -0.3585   -0.1097 C   0  0  1  0  0  0
    8.9790    1.0992   -0.1800 N   0  0
    8.5553    3.2833   -0.3682 N   0  0
   10.1764    1.7582    0.0401 C   0  0
    8.0313    2.0721   -0.4708 C   0  0
    9.8743    3.1052   -0.0632 C   0  0
   12.3637    2.1258    0.4785 C   0  0
   11.3838    1.2097    0.2976 N   0  0
   10.9028    4.0411    0.1312 C   0  0
   12.1748    3.5100    0.4084 C   0  0
    6.6039    1.8301   -0.8548 C   0  0
   10.7057    5.5238    0.0420 C   0  0
    5.8988    3.0963   -1.3284 C   0  0
    5.0366   -4.8926    0.9757 N   0  0
    5.3821   -6.1607    1.2284 N   0  0
    4.2440   -6.8359    1.2073 N   0  0
    3.1841   -6.0041    0.9425 N   0  0
   13.7381    1.5906    0.7692 C   0  0
    4.9441   -1.2837    2.3366 H   0  0
    5.2401   -2.4555   -1.8203 H   0  0
    7.2561   -0.4094    2.2747 H   0  0
    1.0613   -4.6481    0.6278 H   0  0
    3.0317   -0.1963   -0.1879 H   0  0
   -0.3908   -2.7232    0.1623 H   0  0
    0.6112   -0.4811   -0.2463 H   0  0
    7.9952   -2.4150   -2.6333 H   0  0
    7.5624   -0.6876   -2.8001 H   0  0
    9.7961   -1.9767   -1.2219 H   0  0
    9.8554   -0.4595   -2.1144 H   0  0
    9.5969   -0.6857    0.6661 H   0  0
   13.0181    4.1816    0.5628 H   0  0
    6.5535    1.1034   -1.6684 H   0  0
    6.0503    1.4421    0.0039 H   0  0
   11.3092    5.9348   -0.7735 H   0  0
   11.0017    6.0007    0.9819 H   0  0
    9.6580    5.7766   -0.1499 H   0  0
    4.8659    2.8699   -1.6117 H   0  0
    6.4023    3.5297   -2.1992 H   0  0
    5.8727    3.8558   -0.5394 H   0  0
    5.7595   -4.1889    0.9490 H   0  0
   14.0927    1.9653    1.7346 H   0  0
   14.4364    1.8969   -0.0161 H   0  0
   13.7303    0.4965    0.8110 H   0  0
  1  2  1  0
  2  4  1  0
  3  1  1  0
  3 29  1  0
  4  5  2  0
  5  7  1  0
  5 34  1  0
  6  4  1  0
  6 13  2  0
  6 35  1  0
  7 12  2  0
  7 36  1  0
  8  1  2  0
  8 10  1  0
  8 37  1  0
  9  2  2  0
  9 38  1  0
 10 11  2  0
 10 39  1  0
 11  9  1  0
 11 40  1  0
 12 13  1  0
 13 14  1  0
 14 15  1  0
 14 41  1  0
 14 42  1  0
 15 16  1  0
 15 43  1  0
 15 44  1  0
 16 12  1  0
 16 17  1  0
 16 45  1  0
 17 19  1  0
 18 20  2  0
 18 21  1  0
 19 21  2  0
 19 23  1  0
 20 17  1  0
 21 24  1  0
 22 33  1  0
 23 22  2  0
 24 25  2  0
 25 22  1  0
 25 46  1  0
 26 20  1  0
 26 47  1  0
 26 48  1  0
 27 24  1  0
 27 49  1  0
 27 50  1  0
 27 51  1  0
 28 26  1  0
 28 52  1  0
 28 53  1  0
 28 54  1  0
 29 30  1  0
 29 55  1  0
 30 31  2  0
 31 32  1  0
 32  3  2  0
 33 56  1  0
 33 57  1  0
 33 58  1  0
M  END
> <Name>
CHEMBL1801713

> <Clean Energy>
93.125298

> <chembl_id>
CHEMBL1801713

> <chembl_pref_name>
None

> <efficacy>
0.217391304

> <Forcefield>
MMFF

> <ForcefieldBase>
MMFF

> <ForcefieldFFML>
<?xml version="1.0" encoding="UTF-8"?>
<!DOCTYPE ffml SYSTEM "Ffml.dtd">
<ffml version="1.0">
<forcefield name="MMFF" derivedFrom="MMFF" base="MMFF">
<atomTypes>
<atomType
name="C100"
element="C"
mass="12.011"
annotation=""/>
<atomType
name="N101"
element="N"
mass="14.007"
annotation=""/>
<atomType
name="H102"
element="H"
mass="1.008"
annotation=""/>
</atomTypes>
<parameters>
</parameters>
</forcefield>
</ffml>

> <Initial Potential Energy>
236.96153

> <Initial RMS Gradient>
37.99414

> <Minimization Criteria>
STEEPD> Minimization exiting with gradient tolerance ( 3.0000000) satisfied.

> <CHARMm Energy>
87.42835

> <Potential Energy>
87.42835

> <RMS Gradient>
0.08284

> <Bond Energy>
8.29907

> <Angle Energy>
16.9886

> <STRBend>
-0.53182

> <Dihedral Energy>
6.44871

> <OOPLane>
0.19437

> <Van der Waals Energy>
55.81155

> <Electrostatic Energy>
0.21787

> <Hydrogen Bond Energy>
0

> <Solvation Free Energy>
0

> <HasGasteigerCharges>
true

> <REMARK99>
REMARK  99  MacroMolecule created from Mol2 file
REMARK  99  CHEMBL1801713
REMARK  99  PROTEIN
REMARK  99  GASTEIGER
REMARK  99
REMARK  99

$$$$
CHEMBL5196394
  SciTegic05292516403D

 55 57  0  0  0  0            999 V2000
    4.5193    0.4536    1.6526 O   0  0
    4.3796   -0.0604    0.5506 C   0  0
    4.6548   -1.3305    0.2058 O   0  0
    5.2562   -2.1399    1.2254 C   0  0
    6.2601   -3.0478    0.5592 C   0  0
    7.6085   -2.6707    0.4646 C   0  0
    8.5307   -3.4964   -0.1806 C   0  0
    8.1094   -4.6974   -0.7479 C   0  0
    6.7729   -5.0818   -0.6642 C   0  0
    5.8506   -4.2595   -0.0163 C   0  0
    3.9578    0.6346   -0.5347 N   0  0
    3.5167    2.0312   -0.4837 C   0  0  1  0  0  0
    4.6962    2.9943   -0.2836 C   0  0
    5.3985    2.7822    0.8567 O   0  0
    4.9719    3.9246   -1.0306 O   0  0
    2.7437    2.4347   -1.7499 C   0  0
    1.0793    1.6808   -1.7988 S   0  0
    0.2181    2.8984   -0.7550 C   0  0
   -1.1487    2.4098   -0.3641 C   0  0
   -1.3078    1.5963    0.7692 C   0  0
   -2.5664    1.1205    1.1252 C   0  0
   -3.6757    1.4707    0.3556 C   0  0
   -3.5278    2.2609   -0.7919 C   0  0
   -2.2654    2.7280   -1.1489 C   0  0
   -5.0071    0.9825    0.7747 C   0  0
   -5.1308   -0.1417    1.2535 O   0  0
   -6.1937    1.8513    0.6008 C   0  0
   -7.3856    1.2757    0.1573 C   0  0
   -8.4928    2.0875   -0.0783 C   0  0
   -8.4168    3.4612    0.1550 C   0  0
   -7.2390    4.0318    0.6362 C   0  0
   -6.1216    3.2283    0.8589 C   0  0
    5.7549   -1.5453    2.0003 H   0  0
    4.4714   -2.7321    1.7093 H   0  0
    7.9463   -1.7278    0.8896 H   0  0
    9.5780   -3.2074   -0.2456 H   0  0
    8.8250   -5.3349   -1.2594 H   0  0
    6.4504   -6.0202   -1.1085 H   0  0
    4.8065   -4.5635    0.0311 H   0  0
    3.8619    0.1040   -1.3924 H   0  0
    2.8828    2.1557    0.4033 H   0  0
    5.0558    2.0227    1.3905 H   0  0
    2.6258    3.5205   -1.8323 H   0  0
    3.2845    2.1038   -2.6442 H   0  0
    0.7981    3.1018    0.1513 H   0  0
    0.1383    3.8447   -1.3017 H   0  0
   -0.4476    1.3179    1.3743 H   0  0
   -2.6820    0.4828    1.9988 H   0  0
   -4.3820    2.5099   -1.4195 H   0  0
   -2.1515    3.3291   -2.0485 H   0  0
   -7.4560    0.2041   -0.0177 H   0  0
   -9.4150    1.6463   -0.4448 H   0  0
   -9.2824    4.0901   -0.0318 H   0  0
   -7.2045    5.1004    0.8360 H   0  0
   -5.2009    3.6772    1.2295 H   0  0
  2  1  2  0
  2  3  1  0
  3  4  1  0
  4  5  1  0
  4 33  1  0
  4 34  1  0
  5 10  1  0
  6  5  2  0
  6 35  1  0
  7  6  1  0
  7 36  1  0
  8  7  2  0
  8 37  1  0
  9  8  1  0
  9 38  1  0
 10  9  2  0
 10 39  1  0
 11  2  1  0
 11 40  1  0
 12 11  1  0
 12 13  1  0
 12 41  1  0
 13 14  1  0
 13 15  2  0
 14 42  1  0
 16 12  1  0
 16 43  1  0
 16 44  1  0
 17 16  1  0
 18 17  1  0
 18 45  1  0
 18 46  1  0
 19 18  1  0
 19 24  2  0
 20 19  1  0
 20 47  1  0
 21 20  2  0
 21 48  1  0
 22 21  1  0
 23 22  2  0
 23 49  1  0
 24 23  1  0
 24 50  1  0
 25 22  1  0
 25 26  2  0
 27 25  1  0
 27 32  2  0
 28 27  1  0
 28 51  1  0
 29 28  2  0
 29 52  1  0
 30 29  1  0
 30 53  1  0
 31 30  2  0
 31 54  1  0
 32 31  1  0
 32 55  1  0
M  END
> <Name>
CHEMBL5196394

> <Clean Energy>
11.2252

> <chembl_id>
CHEMBL5196394

> <chembl_pref_name>
None

> <efficacy>
0.22

> <Forcefield>
MMFF

> <ForcefieldBase>
MMFF

> <ForcefieldFFML>
<?xml version="1.0" encoding="UTF-8"?>
<!DOCTYPE ffml SYSTEM "Ffml.dtd">
<ffml version="1.0">
<forcefield name="MMFF" derivedFrom="MMFF" base="MMFF">
<atomTypes>
<atomType
name="O100"
element="O"
mass="16"
annotation=""/>
<atomType
name="C101"
element="C"
mass="12.011"
annotation=""/>
<atomType
name="N102"
element="N"
mass="14.007"
annotation=""/>
<atomType
name="S103"
element="S"
mass="32.066"
annotation=""/>
<atomType
name="H104"
element="H"
mass="1.008"
annotation=""/>
</atomTypes>
<parameters>
</parameters>
</forcefield>
</ffml>

> <Initial Potential Energy>
160.30304

> <Initial RMS Gradient>
34.94364

> <Minimization Criteria>
CONJUG> Minimization exiting with gradient tolerance ( 0.0100000) satisfied.

> <CHARMm Energy>
39.27812

> <Potential Energy>
39.27812

> <RMS Gradient>
0.00975

> <Bond Energy>
5.94463

> <Angle Energy>
7.93593

> <STRBend>
0.86402

> <Dihedral Energy>
14.28854

> <OOPLane>
0.18009

> <Van der Waals Energy>
63.14103

> <Electrostatic Energy>
-53.07612

> <Hydrogen Bond Energy>
0

> <Solvation Free Energy>
0

> <HasGasteigerCharges>
true

> <REMARK99>
REMARK  99  MacroMolecule created from Mol2 file
REMARK  99  CHEMBL5196394
REMARK  99  PROTEIN
REMARK  99  GASTEIGER
REMARK  99
REMARK  99

$$$$
CHEMBL4483378
  SciTegic05292516403D

 54 56  0  0  0  0            999 V2000
   11.4826  -11.9270    1.5857 C   0  0
   12.2751  -10.7469    1.0209 C   0  0  2  0  0  0
   13.7926  -10.9630    1.1606 C   0  0
   14.3038  -12.0646    0.2213 C   0  0
   15.8239  -12.2148    0.3140 C   0  0
   16.3331  -13.2940   -0.6426 C   0  0
   17.8526  -13.4355   -0.5653 C   0  0
   18.3604  -14.5070   -1.5173 C   0  0
   11.9012  -12.6986    2.4387 O   0  0
   10.2528  -12.0807    1.0394 O   0  0
   11.8183   -9.2193    1.9196 S   0  0
    9.1633   -7.7482    1.9329 S   0  0
   10.2190   -8.9203    1.2766 C   0  0
    9.7523   -9.6283    0.2702 N   0  0
    8.4510   -9.2322   -0.0054 C   0  0
    7.9417   -8.2289    0.8172 C   0  0
    7.6232   -9.7727   -1.0036 C   0  0
    6.3028   -9.3196   -1.1272 C   0  0
    5.7819   -8.3287   -0.2922 C   0  0
    6.6210   -7.7650    0.6834 C   0  0
    4.4634   -7.9204   -0.3415 N   0  0
    3.4437   -8.5546   -1.1520 C   0  0
    2.0774   -8.1084   -0.6870 C   0  0
    1.2693   -7.2919   -1.4927 C   0  0
    0.0047   -6.9008   -1.0487 C   0  0
   -0.4596   -7.3060    0.2015 C   0  0
    0.3373   -8.1129    1.0126 C   0  0
    1.5995   -8.5115    0.5712 C   0  0
   -0.9911   -5.9144   -2.0499 Cl  0  0
   12.0531  -10.6377   -0.0466 H   0  0
   14.3238  -10.0345    0.9118 H   0  0
   14.0584  -11.2189    2.1947 H   0  0
   13.8288  -13.0209    0.4679 H   0  0
   14.0249  -11.8221   -0.8118 H   0  0
   16.3032  -11.2574    0.0747 H   0  0
   16.1064  -12.4702    1.3421 H   0  0
   15.8612  -14.2537   -0.3990 H   0  0
   16.0407  -13.0422   -1.6694 H   0  0
   18.3294  -12.4798   -0.8131 H   0  0
   18.1518  -13.6918    0.4579 H   0  0
   19.4489  -14.5935   -1.4454 H   0  0
   18.1069  -14.2625   -2.5537 H   0  0
   17.9253  -15.4821   -1.2780 H   0  0
   10.0093  -11.3243    0.4562 H   0  0
    7.9971  -10.5517   -1.6606 H   0  0
    5.6881   -9.7740   -1.9002 H   0  0
    6.2484   -6.9967    1.3554 H   0  0
    4.1832   -7.1113    0.2006 H   0  0
    3.5933   -8.3046   -2.2086 H   0  0
    3.4852   -9.6480   -1.0613 H   0  0
    1.6307   -6.9645   -2.4640 H   0  0
   -1.4413   -6.9985    0.5494 H   0  0
   -0.0209   -8.4321    1.9886 H   0  0
    2.2191   -9.1405    1.2106 H   0  0
  1  2  1  0
  1  9  2  0
  1 10  1  0
  2  3  1  0
  2 11  1  0
  2 30  1  0
  3  4  1  0
  3 31  1  0
  3 32  1  0
  4  5  1  0
  4 33  1  0
  4 34  1  0
  5  6  1  0
  5 35  1  0
  5 36  1  0
  6  7  1  0
  6 37  1  0
  6 38  1  0
  7  8  1  0
  7 39  1  0
  7 40  1  0
  8 41  1  0
  8 42  1  0
  8 43  1  0
 10 44  1  0
 11 13  1  0
 12 13  1  0
 12 16  1  0
 13 14  2  0
 14 15  1  0
 15 16  1  0
 15 17  2  0
 16 20  2  0
 17 18  1  0
 17 45  1  0
 18 19  2  0
 18 46  1  0
 19 20  1  0
 19 21  1  0
 20 47  1  0
 21 22  1  0
 21 48  1  0
 22 23  1  0
 22 49  1  0
 22 50  1  0
 23 24  1  0
 23 28  2  0
 24 25  2  0
 24 51  1  0
 25 26  1  0
 25 29  1  0
 26 27  2  0
 26 52  1  0
 27 28  1  0
 27 53  1  0
 28 54  1  0
M  END
> <Name>
CHEMBL4483378

> <Clean Energy>
30.180201

> <chembl_id>
CHEMBL4483378

> <chembl_pref_name>
None

> <efficacy>
0.44634378

> <Forcefield>
MMFF

> <ForcefieldBase>
MMFF

> <ForcefieldFFML>
<?xml version="1.0" encoding="UTF-8"?>
<!DOCTYPE ffml SYSTEM "Ffml.dtd">
<ffml version="1.0">
<forcefield name="MMFF" derivedFrom="MMFF" base="MMFF">
<atomTypes>
<atomType
name="C100"
element="C"
mass="12.011"
annotation=""/>
<atomType
name="O101"
element="O"
mass="16"
annotation=""/>
<atomType
name="S102"
element="S"
mass="32.066"
annotation=""/>
<atomType
name="N103"
element="N"
mass="14.007"
annotation=""/>
<atomType
name="Cl104"
element="Cl"
mass="35.453"
annotation=""/>
<atomType
name="H105"
element="H"
mass="1.008"
annotation=""/>
</atomTypes>
<parameters>
</parameters>
</forcefield>
</ffml>

> <Initial Potential Energy>
92.09546

> <Initial RMS Gradient>
27.60097

> <Minimization Criteria>
STEEPD> Minimization exiting with gradient tolerance ( 3.0000000) satisfied.

> <CHARMm Energy>
4.51068

> <Potential Energy>
4.51068

> <RMS Gradient>
0.15922

> <Bond Energy>
5.24648

> <Angle Energy>
12.68915

> <STRBend>
-1.30018

> <Dihedral Energy>
-4.28292

> <OOPLane>
0.05224

> <Van der Waals Energy>
46.41997

> <Electrostatic Energy>
-54.31405

> <Hydrogen Bond Energy>
0

> <Solvation Free Energy>
0

> <HasGasteigerCharges>
true

> <REMARK99>
REMARK  99  MacroMolecule created from Mol2 file
REMARK  99  CHEMBL4483378
REMARK  99  PROTEIN
REMARK  99  GASTEIGER
REMARK  99
REMARK  99

$$$$
CHEMBL5077172
  SciTegic05292516403D

 57 59  0  0  0  0            999 V2000
   13.9461  -25.8416    0.5805 C   0  0
   14.2437  -26.2841   -0.8587 C   0  0
   13.9158  -27.7543   -1.1560 C   0  0
   24.0314  -26.2371    2.0225 C   0  0
   23.5146  -27.3751    1.3906 C   0  0
   24.1070  -27.8979    0.2409 C   0  0
   25.1981  -27.2471   -0.3286 C   0  0
   25.7124  -26.0879    0.2590 C   0  0
   25.1155  -25.5822    1.4222 C   0  0
   26.8015  -25.4303   -0.3331 N   0  0
   27.8615  -25.7832    0.2287 N   0  0
   28.9579  -25.1810   -0.4071 C   0  0
   29.7888  -25.9540   -1.2250 C   0  0
   30.8882  -25.3779   -1.8588 C   0  0
   31.1650  -24.0244   -1.6698 C   0  0
   30.3536  -23.2475   -0.8438 C   0  0
   29.2548  -23.8265   -0.2111 C   0  0
   22.4419  -28.0459    1.9112 O   0  0
   21.2076  -27.4201    1.5164 C   0  0
   20.5700  -28.1933    0.3616 C   0  0
   19.2323  -27.6243   -0.0372 C   0  0
   19.1344  -26.6693   -1.0527 C   0  0
   17.8881  -26.1433   -1.4072 C   0  0
   16.7167  -26.5519   -0.7605 C   0  0
   16.8189  -27.4895    0.2619 C   0  0
   18.0653  -28.0227    0.6208 C   0  0
   15.5916  -25.9443   -1.2282 O   0  0
   13.3380  -25.4294   -1.8029 C   0  0
   12.0007  -25.5433   -1.5622 O   0  0
   13.7347  -24.7065   -2.7074 O   0  0
   23.4396  -25.6923    3.2889 C   0  0
   14.6336  -26.2683    1.3123 H   0  0
   12.9336  -26.1118    0.8959 H   0  0
   14.0450  -24.7532    0.6720 H   0  0
   14.2313  -28.0183   -2.1724 H   0  0
   12.8449  -27.9665   -1.0751 H   0  0
   14.4181  -28.4485   -0.4804 H   0  0
   23.7228  -28.8076   -0.2105 H   0  0
   25.6636  -27.6456   -1.2258 H   0  0
   25.5248  -24.6787    1.8678 H   0  0
   29.5618  -27.0068   -1.3709 H   0  0
   31.5327  -25.9799   -2.4952 H   0  0
   32.0213  -23.5746   -2.1645 H   0  0
   30.5826  -22.1953   -0.6928 H   0  0
   28.6149  -23.2272    0.4310 H   0  0
   20.5498  -27.4478    2.3932 H   0  0
   21.3330  -26.3605    1.2541 H   0  0
   21.2400  -28.2011   -0.5069 H   0  0
   20.4588  -29.2500    0.6377 H   0  0
   20.0241  -26.3273   -1.5784 H   0  0
   17.8245  -25.4055   -2.2054 H   0  0
   15.9619  -27.8388    0.8204 H   0  0
   18.1116  -28.7576    1.4226 H   0  0
   11.7794  -26.1404   -0.8259 H   0  0
   24.1751  -25.0998    3.8434 H   0  0
   23.1182  -26.5021    3.9520 H   0  0
   22.5812  -25.0537    3.0599 H   0  0
  1 32  1  0
  1 33  1  0
  1 34  1  0
  2  1  1  0
  2 28  1  0
  3  2  1  0
  3 35  1  0
  3 36  1  0
  3 37  1  0
  4  5  2  0
  4 31  1  0
  5  6  1  0
  5 18  1  0
  6  7  2  0
  6 38  1  0
  7  8  1  0
  7 39  1  0
  8  9  2  0
  8 10  1  0
  9  4  1  0
  9 40  1  0
 10 11  2  0
 11 12  1  0
 12 13  2  0
 13 14  1  0
 13 41  1  0
 14 15  2  0
 14 42  1  0
 15 16  1  0
 15 43  1  0
 16 17  2  0
 16 44  1  0
 17 12  1  0
 17 45  1  0
 18 19  1  0
 19 20  1  0
 19 46  1  0
 19 47  1  0
 20 21  1  0
 20 48  1  0
 20 49  1  0
 21 22  2  0
 22 23  1  0
 22 50  1  0
 23 24  2  0
 23 51  1  0
 24 25  1  0
 24 27  1  0
 25 26  2  0
 25 52  1  0
 26 21  1  0
 26 53  1  0
 27  2  1  0
 28 29  1  0
 28 30  2  0
 29 54  1  0
 31 55  1  0
 31 56  1  0
 31 57  1  0
M  END
> <Name>
CHEMBL5077172

> <Clean Energy>
32.297798

> <chembl_id>
CHEMBL5077172

> <chembl_pref_name>
None

> <efficacy>
0.189933523

> <Forcefield>
MMFF

> <ForcefieldBase>
MMFF

> <ForcefieldFFML>
<?xml version="1.0" encoding="UTF-8"?>
<!DOCTYPE ffml SYSTEM "Ffml.dtd">
<ffml version="1.0">
<forcefield name="MMFF" derivedFrom="MMFF" base="MMFF">
<atomTypes>
<atomType
name="C100"
element="C"
mass="12.011"
annotation=""/>
<atomType
name="N101"
element="N"
mass="14.007"
annotation=""/>
<atomType
name="O102"
element="O"
mass="16"
annotation=""/>
<atomType
name="H103"
element="H"
mass="1.008"
annotation=""/>
</atomTypes>
<parameters>
</parameters>
</forcefield>
</ffml>

> <Initial Potential Energy>
186.68391

> <Initial RMS Gradient>
30.12554

> <Minimization Criteria>
STEEPD> Minimization exiting with gradient tolerance ( 3.0000000) satisfied.

> <CHARMm Energy>
104.40449

> <Potential Energy>
104.40449

> <RMS Gradient>
0.04512

> <Bond Energy>
6.57866

> <Angle Energy>
19.46865

> <STRBend>
0.45152

> <Dihedral Energy>
15.04969

> <OOPLane>
0.03666

> <Van der Waals Energy>
63.16669

> <Electrostatic Energy>
-0.34737

> <Hydrogen Bond Energy>
0

> <Solvation Free Energy>
0

> <HasGasteigerCharges>
true

> <REMARK99>
REMARK  99  MacroMolecule created from Mol2 file
REMARK  99  CHEMBL5077172
REMARK  99  PROTEIN
REMARK  99  GASTEIGER
REMARK  99
REMARK  99

$$$$
CHEMBL4293061
  SciTegic05292516403D

 73 78  0  0  0  0            999 V2000
   29.6776  -15.4462    0.1564 C   0  0
   32.7906  -22.6594   -1.8533 C   0  0
   34.1244  -22.1399   -1.9410 O   0  0
   33.9090  -24.5889   -0.1548 C   0  0
   32.9015  -23.6802    0.4351 C   0  0
   32.2925  -22.7668   -0.4317 C   0  0
   31.2311  -21.9913    0.0410 C   0  0
   30.7969  -22.0928    1.3761 C   0  0
   31.4803  -22.9552    2.2457 C   0  0
   32.5437  -23.7274    1.7841 C   0  0
   35.1942  -22.8556   -1.4628 C   0  0
   35.1755  -23.9936   -0.6329 C   0  0
   36.3898  -24.5254   -0.1660 C   0  0
   37.6073  -23.9632   -0.5449 C   0  0
   37.6240  -22.8565   -1.3851 C   0  0
   36.4262  -22.3050   -1.8358 C   0  0
   33.5646  -25.8644   -0.4780 C   0  0
   32.1669  -26.2859   -0.2394 C   0  0
   34.3636  -26.8549   -1.2732 C   0  0
   29.5744  -21.3648    1.8853 C   0  0
   29.4120  -20.0511    1.2853 N   0  0
   31.2008  -26.2562   -1.0920 N   0  0
   30.0444  -26.6266   -0.3410 O   0  0
   30.4679  -26.7609    0.9576 C   0  0
   31.8024  -26.6579    0.9839 N   0  0
   29.7309  -26.7948    1.9296 O   0  0
   28.7470  -18.4684   -0.0949 N   0  0
   28.5819  -19.7305    0.2357 C   0  0
   29.6252  -17.9172    0.8121 C   0  0
   30.0898  -18.9144    1.6707 C   0  0
   31.0512  -18.6867    2.6634 C   0  0
   31.5487  -17.3909    2.7847 C   0  0
   31.0836  -16.3689    1.9588 C   0  0
   30.0983  -16.6015    0.9747 C   0  0
   27.6558  -20.7041   -0.4274 C   0  0
   26.9402  -20.1010   -1.6370 C   0  0
   26.0237  -21.1150   -2.3035 C   0  0
   30.4911  -14.5466   -0.0719 O   0  0
   28.3951  -15.2513   -0.2904 N   0  0
   27.2140  -16.0790   -0.1398 C   0  0
   25.9144  -15.3001   -0.3389 C   0  0
   24.7781  -16.1604   -0.2804 O   0  0
   32.1557  -21.9608   -2.4111 H   0  0
   32.7169  -23.6144   -2.3890 H   0  0
   30.7435  -21.3092   -0.6524 H   0  0
   31.1767  -23.0444    3.2871 H   0  0
   33.0698  -24.3810    2.4733 H   0  0
   36.3930  -25.3769    0.5101 H   0  0
   38.5401  -24.3815   -0.1770 H   0  0
   38.5669  -22.4074   -1.6792 H   0  0
   36.4522  -21.4263   -2.4761 H   0  0
   33.7233  -27.4140   -1.9649 H   0  0
   34.8418  -27.5744   -0.5998 H   0  0
   35.1384  -26.3846   -1.8850 H   0  0
   28.6800  -21.9629    1.6851 H   0  0
   29.6265  -21.2131    2.9699 H   0  0
   32.3573  -26.7240    1.8175 H   0  0
   31.4161  -19.4824    3.3052 H   0  0
   32.3061  -17.1732    3.5344 H   0  0
   31.4901  -15.3659    2.0791 H   0  0
   28.2221  -21.5859   -0.7481 H   0  0
   26.9103  -21.0379    0.3039 H   0  0
   26.3462  -19.2318   -1.3292 H   0  0
   27.6735  -19.7438   -2.3707 H   0  0
   25.5192  -20.6623   -3.1632 H   0  0
   25.2568  -21.4676   -1.6063 H   0  0
   26.5901  -21.9816   -2.6595 H   0  0
   28.3162  -14.4097   -0.8492 H   0  0
   27.2596  -16.8521   -0.9109 H   0  0
   27.2099  -16.5590    0.8432 H   0  0
   25.8014  -14.5292    0.4303 H   0  0
   25.9079  -14.8001   -1.3133 H   0  0
   25.0233  -16.9951   -0.7232 H   0  0
  1 38  2  0
  1 39  1  0
  2  3  1  0
  2  6  1  0
  2 43  1  0
  2 44  1  0
  3 11  1  0
  4 17  2  0
  5  4  1  0
  5  6  2  0
  6  7  1  0
  7  8  2  0
  7 45  1  0
  8  9  1  0
  8 20  1  0
  9 10  2  0
  9 46  1  0
 10  5  1  0
 10 47  1  0
 11 12  2  0
 12  4  1  0
 12 13  1  0
 13 14  2  0
 13 48  1  0
 14 15  1  0
 14 49  1  0
 15 16  2  0
 15 50  1  0
 16 11  1  0
 16 51  1  0
 17 18  1  0
 17 19  1  0
 18 22  2  0
 19 52  1  0
 19 53  1  0
 19 54  1  0
 20 21  1  0
 20 55  1  0
 20 56  1  0
 21 30  1  0
 22 23  1  0
 23 24  1  0
 24 25  1  0
 24 26  2  0
 25 18  1  0
 25 57  1  0
 27 28  2  0
 28 21  1  0
 28 35  1  0
 29 27  1  0
 29 30  2  0
 30 31  1  0
 31 32  2  0
 31 58  1  0
 32 33  1  0
 32 59  1  0
 33 34  2  0
 33 60  1  0
 34  1  1  0
 34 29  1  0
 35 36  1  0
 35 61  1  0
 35 62  1  0
 36 37  1  0
 36 63  1  0
 36 64  1  0
 37 65  1  0
 37 66  1  0
 37 67  1  0
 39 40  1  0
 39 68  1  0
 40 41  1  0
 40 69  1  0
 40 70  1  0
 41 42  1  0
 41 71  1  0
 41 72  1  0
 42 73  1  0
M  END
> <Name>
CHEMBL4293061

> <Clean Energy>
123.420998

> <chembl_id>
CHEMBL4293061

> <chembl_pref_name>
None

> <efficacy>
0.104463438

> <Forcefield>
MMFF

> <ForcefieldBase>
MMFF

> <ForcefieldFFML>
<?xml version="1.0" encoding="UTF-8"?>
<!DOCTYPE ffml SYSTEM "Ffml.dtd">
<ffml version="1.0">
<forcefield name="MMFF" derivedFrom="MMFF" base="MMFF">
<atomTypes>
<atomType
name="C100"
element="C"
mass="12.011"
annotation=""/>
<atomType
name="O101"
element="O"
mass="16"
annotation=""/>
<atomType
name="N102"
element="N"
mass="14.007"
annotation=""/>
<atomType
name="H103"
element="H"
mass="1.008"
annotation=""/>
</atomTypes>
<parameters>
</parameters>
</forcefield>
</ffml>

> <Initial Potential Energy>
423.40876

> <Initial RMS Gradient>
65.89125

> <Minimization Criteria>
STEEPD> Minimization exiting with gradient tolerance ( 3.0000000) satisfied.

> <CHARMm Energy>
102.3314

> <Potential Energy>
102.3314

> <RMS Gradient>
0.10794

> <Bond Energy>
9.22811

> <Angle Energy>
35.3755

> <STRBend>
-0.45619

> <Dihedral Energy>
21.02193

> <OOPLane>
1.26783

> <Van der Waals Energy>
74.85069

> <Electrostatic Energy>
-38.95646

> <Hydrogen Bond Energy>
0

> <Solvation Free Energy>
0

> <HasGasteigerCharges>
true

> <REMARK99>
REMARK  99  MacroMolecule created from Mol2 file
REMARK  99  CHEMBL4293061
REMARK  99  PROTEIN
REMARK  99  GASTEIGER
REMARK  99
REMARK  99

$$$$
CHEMBL5094028
  SciTegic05292516403D

 49 52  0  0  0  0            999 V2000
   20.6467  -14.1003    1.9817 F   0  0
   19.9726  -15.2461    1.6825 C   0  0
   20.5547  -16.2154    2.4482 F   0  0
   18.8693  -15.8144   -0.5033 C   0  0
   18.8925  -16.1085   -1.8638 C   0  0
   20.1132  -16.1816   -2.5319 C   0  0
   21.3110  -15.9648   -1.8448 C   0  0
   21.3201  -15.6850   -0.4653 C   0  0
   20.0699  -15.5904    0.2082 C   0  0
   18.7072  -15.0884    2.1528 F   0  0
   22.6422  -15.3613    0.2232 C   0  0
   23.7538  -16.2619   -0.0926 N   0  0
   25.0562  -15.8861    0.2247 C   0  0
   26.2030  -16.8303   -0.0193 C   0  0
   25.3016  -14.7774    0.6966 O   0  0
   26.0366  -18.1986   -0.3374 C   0  0
   27.1491  -19.0418   -0.5529 C   0  0
   27.5122  -16.3045    0.0994 C   0  0
   28.5845  -17.1482   -0.1204 C   0  0
   28.4121  -18.4925   -0.4439 C   0  0
   29.6887  -19.0479   -0.6290 N   0  0
   30.6670  -18.0452   -0.4223 C   0  0
   29.9544  -16.8749   -0.0976 N   0  0
   31.8802  -18.1492   -0.5048 O   0  0
   30.0049  -20.3837   -1.0645 C   0  0
   30.2395  -21.3997    0.0355 C   0  0
   30.6427  -21.0420    1.3301 C   0  0
   30.8967  -22.0196    2.2965 C   0  0
   30.7610  -23.3728    1.9815 C   0  0
   30.3818  -23.7487    0.6908 C   0  0
   30.1265  -22.7667   -0.2742 C   0  0
   30.2128  -25.4024    0.2167 Cl  0  0
   31.0832  -24.5265    3.2257 Cl  0  0
   17.9055  -15.7466    0.0031 H   0  0
   17.9612  -16.2688   -2.4042 H   0  0
   20.1153  -16.3839   -3.6018 H   0  0
   22.2477  -15.9928   -2.4010 H   0  0
   22.9268  -14.3352   -0.0402 H   0  0
   22.5429  -15.4067    1.3113 H   0  0
   23.5471  -17.1900   -0.4305 H   0  0
   25.0467  -18.6390   -0.4097 H   0  0
   27.0030  -20.0890   -0.7936 H   0  0
   27.6746  -15.2615    0.3512 H   0  0
   30.4156  -15.9966    0.0866 H   0  0
   29.2024  -20.7278   -1.7275 H   0  0
   30.9240  -20.3365   -1.6622 H   0  0
   30.7636  -19.9960    1.6062 H   0  0
   31.2170  -21.7212    3.2928 H   0  0
   29.8492  -23.0748   -1.2815 H   0  0
  2  1  1  0
  2 10  1  0
  3  2  1  0
  4  5  2  0
  4 34  1  0
  5  6  1  0
  5 35  1  0
  6  7  2  0
  6 36  1  0
  7  8  1  0
  7 37  1  0
  8  9  2  0
  8 11  1  0
  9  2  1  0
  9  4  1  0
 11 12  1  0
 11 38  1  0
 11 39  1  0
 12 13  1  0
 12 40  1  0
 13 14  1  0
 13 15  2  0
 14 16  2  0
 16 17  1  0
 16 41  1  0
 17 20  2  0
 17 42  1  0
 18 14  1  0
 18 43  1  0
 19 18  2  0
 19 20  1  0
 20 21  1  0
 21 22  1  0
 21 25  1  0
 22 23  1  0
 22 24  2  0
 23 19  1  0
 23 44  1  0
 25 26  1  0
 25 45  1  0
 25 46  1  0
 26 27  2  0
 27 28  1  0
 27 47  1  0
 28 29  2  0
 28 48  1  0
 29 30  1  0
 29 33  1  0
 30 31  2  0
 30 32  1  0
 31 26  1  0
 31 49  1  0
M  END
> <Name>
CHEMBL5094028

> <Clean Energy>
48.006599

> <chembl_id>
CHEMBL5094028

> <chembl_pref_name>
None

> <efficacy>
0.265906933

> <Forcefield>
MMFF

> <ForcefieldBase>
MMFF

> <ForcefieldFFML>
<?xml version="1.0" encoding="UTF-8"?>
<!DOCTYPE ffml SYSTEM "Ffml.dtd">
<ffml version="1.0">
<forcefield name="MMFF" derivedFrom="MMFF" base="MMFF">
<atomTypes>
<atomType
name="F100"
element="F"
mass="18.998"
annotation=""/>
<atomType
name="C101"
element="C"
mass="12.011"
annotation=""/>
<atomType
name="N102"
element="N"
mass="14.007"
annotation=""/>
<atomType
name="O103"
element="O"
mass="16"
annotation=""/>
<atomType
name="Cl104"
element="Cl"
mass="35.453"
annotation=""/>
<atomType
name="H105"
element="H"
mass="1.008"
annotation=""/>
</atomTypes>
<parameters>
</parameters>
</forcefield>
</ffml>

> <Initial Potential Energy>
466.24828

> <Initial RMS Gradient>
273.38937

> <Minimization Criteria>
STEEPD> Minimization exiting with gradient tolerance ( 3.0000000) satisfied.

> <CHARMm Energy>
15.63951

> <Potential Energy>
15.63951

> <RMS Gradient>
0.10803

> <Bond Energy>
9.93643

> <Angle Energy>
30.43296

> <STRBend>
-1.46325

> <Dihedral Energy>
-1.10019

> <OOPLane>
0.1799

> <Van der Waals Energy>
55.34535

> <Electrostatic Energy>
-77.69169

> <Hydrogen Bond Energy>
0

> <Solvation Free Energy>
0

> <HasGasteigerCharges>
true

> <REMARK99>
REMARK  99  MacroMolecule created from Mol2 file
REMARK  99  CHEMBL5094028
REMARK  99  PROTEIN
REMARK  99  GASTEIGER
REMARK  99
REMARK  99

$$$$
CHEMBL4538895
  SciTegic05292516403D

 53 56  0  0  0  0            999 V2000
   21.6370  -11.4490    0.7666 C   0  0
   21.8427  -12.7504    0.3072 C   0  0
   23.0894  -13.1551   -0.1723 C   0  0
   22.6649  -10.4820    0.7730 C   0  0
   23.9327  -10.9043    0.3092 C   0  0
   24.1227  -12.2090   -0.1558 C   0  0
   25.4394  -12.2447   -0.5889 N   0  0
   26.0010  -11.0125   -0.3072 C   0  0
   25.1004  -10.1940    0.2058 N   0  0
   26.0029  -13.2519   -1.4923 C   0  0
   27.1150  -14.1323   -0.9576 C   0  0
   27.0376  -14.7979    0.2710 C   0  0
   28.0183  -15.7397    0.6433 C   0  0
   29.1023  -16.0476   -0.1977 C   0  0
   29.1906  -15.3636   -1.4171 C   0  0
   28.2126  -14.4264   -1.7902 C   0  0
   30.0851  -17.1001    0.1435 C   0  0
   29.7725  -18.4389   -0.1745 C   0  0
   30.6732  -19.4841    0.0646 C   0  0
   31.9191  -19.2206    0.6228 C   0  0
   32.2572  -17.9075    0.9472 C   0  0
   31.3535  -16.8511    0.7141 C   0  0
   31.7599  -15.4877    1.1214 C   0  0
   33.0808  -15.2571    0.9974 O   0  0
   31.0240  -14.6009    1.5126 O   0  0
   27.4301  -10.6730   -0.6025 C   0  0
   27.8296   -9.2966   -0.0685 C   0  0
   29.2893   -8.9885   -0.3635 C   0  0
   22.3680   -9.0661    1.2236 C   0  0
   23.4146   -8.5090    1.8962 F   0  0
   21.2926   -8.9793    2.0692 F   0  0
   22.0669   -8.2239    0.1917 F   0  0
   20.6456  -11.1722    1.1238 H   0  0
   21.0089  -13.4523    0.3110 H   0  0
   23.2346  -14.1644   -0.5415 H   0  0
   25.1873  -13.8971   -1.8373 H   0  0
   26.3468  -12.6955   -2.3737 H   0  0
   26.2040  -14.6168    0.9474 H   0  0
   27.9212  -16.2452    1.6029 H   0  0
   30.0118  -15.5759   -2.1013 H   0  0
   28.3065  -13.9475   -2.7639 H   0  0
   28.8131  -18.6804   -0.6301 H   0  0
   30.3921  -20.5017   -0.1933 H   0  0
   32.6212  -20.0305    0.8087 H   0  0
   33.2255  -17.7003    1.3957 H   0  0
   33.1054  -14.3048    1.2423 H   0  0
   28.0798  -11.4328   -0.1523 H   0  0
   27.5888  -10.7013   -1.6870 H   0  0
   27.2011   -8.5194   -0.5203 H   0  0
   27.6651   -9.2505    1.0151 H   0  0
   29.5542   -8.0005    0.0258 H   0  0
   29.4806   -8.9916   -1.4413 H   0  0
   29.9483   -9.7262    0.1052 H   0  0
  1  2  2  0
  1 33  1  0
  2  3  1  0
  2 34  1  0
  3  6  2  0
  3 35  1  0
  4  1  1  0
  4 29  1  0
  5  4  2  0
  5  6  1  0
  6  7  1  0
  7  8  1  0
  7 10  1  0
  8  9  2  0
  8 26  1  0
  9  5  1  0
 10 11  1  0
 10 36  1  0
 10 37  1  0
 11 12  2  0
 12 13  1  0
 12 38  1  0
 13 14  2  0
 13 39  1  0
 14 15  1  0
 14 17  1  0
 15 16  2  0
 15 40  1  0
 16 11  1  0
 16 41  1  0
 17 18  2  0
 18 19  1  0
 18 42  1  0
 19 20  2  0
 19 43  1  0
 20 21  1  0
 20 44  1  0
 21 22  2  0
 21 45  1  0
 22 17  1  0
 22 23  1  0
 23 24  1  0
 23 25  2  0
 24 46  1  0
 26 27  1  0
 26 47  1  0
 26 48  1  0
 27 28  1  0
 27 49  1  0
 27 50  1  0
 28 51  1  0
 28 52  1  0
 28 53  1  0
 29 30  1  0
 29 31  1  0
 29 32  1  0
M  END
> <Name>
CHEMBL4538895

> <Clean Energy>
57.9664

> <chembl_id>
CHEMBL4538895

> <chembl_pref_name>
None

> <efficacy>
0.280151947

> <Forcefield>
MMFF

> <ForcefieldBase>
MMFF

> <ForcefieldFFML>
<?xml version="1.0" encoding="UTF-8"?>
<!DOCTYPE ffml SYSTEM "Ffml.dtd">
<ffml version="1.0">
<forcefield name="MMFF" derivedFrom="MMFF" base="MMFF">
<atomTypes>
<atomType
name="C100"
element="C"
mass="12.011"
annotation=""/>
<atomType
name="N101"
element="N"
mass="14.007"
annotation=""/>
<atomType
name="O102"
element="O"
mass="16"
annotation=""/>
<atomType
name="F103"
element="F"
mass="18.998"
annotation=""/>
<atomType
name="H104"
element="H"
mass="1.008"
annotation=""/>
</atomTypes>
<parameters>
</parameters>
</forcefield>
</ffml>

> <Initial Potential Energy>
236.01883

> <Initial RMS Gradient>
36.59742

> <Minimization Criteria>
CONJUG> Minimization exiting with gradient tolerance ( 0.0100000) satisfied.

> <CHARMm Energy>
71.2187

> <Potential Energy>
71.2187

> <RMS Gradient>
0.00918

> <Bond Energy>
8.89399

> <Angle Energy>
12.23814

> <STRBend>
-0.34777

> <Dihedral Energy>
9.37037

> <OOPLane>
0.33947

> <Van der Waals Energy>
51.44828

> <Electrostatic Energy>
-10.72378

> <Hydrogen Bond Energy>
0

> <Solvation Free Energy>
0

> <HasGasteigerCharges>
true

> <REMARK99>
REMARK  99  MacroMolecule created from Mol2 file
REMARK  99  CHEMBL4538895
REMARK  99  PROTEIN
REMARK  99  GASTEIGER
REMARK  99
REMARK  99

$$$$
CHEMBL4285849
  SciTegic05292516403D

 65 70  0  0  0  0            999 V2000
   21.4141   -6.1422   -2.1680 C   0  0
   22.5095   -5.5544   -1.4599 O   0  0
   21.0168   -7.6820    0.1456 C   0  0
   19.9574   -6.7048   -0.2077 C   0  0
   20.1217   -5.9903   -1.4041 C   0  0
   19.0969   -5.1457   -1.8505 C   0  0
   17.9205   -4.9884   -1.1009 C   0  0
   17.8112   -5.6430    0.1351 C   0  0
   18.8289   -6.4855    0.5857 C   0  0
   23.0292   -6.2166   -0.3735 C   0  0
   22.3952   -7.1918    0.4228 C   0  0
   23.0705   -7.6793    1.5606 C   0  0
   24.3669   -7.2646    1.8650 C   0  0
   24.9998   -6.3322    1.0543 C   0  0
   24.3262   -5.7969   -0.0440 C   0  0
   20.7875   -9.0121   -0.0251 C   0  0
   19.4568   -9.4923   -0.4552 C   0  0
   21.8020  -10.1209    0.0148 C   0  0
   16.7863   -4.1502   -1.6371 C   0  0
   16.5664   -2.9455   -0.8541 N   0  0
   19.0890   -9.8234   -1.6431 N   0  0
   17.7087  -10.1785   -1.5093 O   0  0
   17.4010  -10.0067   -0.1833 C   0  0
   18.5067   -9.6225    0.4663 N   0  0
   16.3012  -10.1630    0.3209 O   0  0
   15.5756   -1.4162    0.3986 N   0  0
   15.4627   -2.6366   -0.0895 C   0  0
   16.7701   -0.9178   -0.0617 C   0  0
   17.4020   -1.8575   -0.8437 C   0  0
   14.3077   -3.5662    0.1204 C   0  0
   13.2373   -2.9762    1.0408 C   0  0
   12.0725   -3.9363    1.2273 C   0  0
   17.2417    0.4245    0.2281 C   0  0
   18.5752    0.7953    0.0408 C   0  0
   18.9423    2.1038    0.3113 C   0  0
   18.0868    3.0497    0.7503 N   0  0
   16.8064    2.6659    0.9413 C   0  0
   16.3430    1.3836    0.7005 C   0  0
   21.3406   -5.6076   -3.1226 H   0  0
   21.6234   -7.1867   -2.4318 H   0  0
   19.2159   -4.6137   -2.7930 H   0  0
   16.9263   -5.5116    0.7547 H   0  0
   18.7250   -6.9743    1.5499 H   0  0
   22.5898   -8.3943    2.2254 H   0  0
   24.8746   -7.6623    2.7395 H   0  0
   26.0048   -5.9992    1.2898 H   0  0
   24.8103   -5.0313   -0.6481 H   0  0
   21.5598  -10.9068   -0.7100 H   0  0
   21.8193  -10.5788    1.0091 H   0  0
   22.8108   -9.7814   -0.2377 H   0  0
   16.9843   -3.8235   -2.6650 H   0  0
   15.8679   -4.7442   -1.6648 H   0  0
   18.5477   -9.4346    1.4506 H   0  0
   18.3333   -1.8478   -1.3921 H   0  0
   13.8563   -3.7980   -0.8518 H   0  0
   14.6736   -4.5065    0.5489 H   0  0
   13.6703   -2.7417    2.0208 H   0  0
   12.8599   -2.0335    0.6253 H   0  0
   11.3184   -3.4936    1.8853 H   0  0
   12.4070   -4.8760    1.6776 H   0  0
   11.5953   -4.1645    0.2692 H   0  0
   19.3220    0.0893   -0.3025 H   0  0
   19.9686    2.4339    0.1782 H   0  0
   16.1381    3.4415    1.3027 H   0  0
   15.2986    1.1411    0.8705 H   0  0
  1  2  1  0
  1  5  1  0
  1 39  1  0
  1 40  1  0
  2 10  1  0
  3 16  2  0
  4  3  1  0
  4  5  2  0
  5  6  1  0
  6  7  2  0
  6 41  1  0
  7  8  1  0
  7 19  1  0
  8  9  2  0
  8 42  1  0
  9  4  1  0
  9 43  1  0
 10 11  2  0
 11  3  1  0
 11 12  1  0
 12 13  2  0
 12 44  1  0
 13 14  1  0
 13 45  1  0
 14 15  2  0
 14 46  1  0
 15 10  1  0
 15 47  1  0
 16 17  1  0
 16 18  1  0
 17 21  2  0
 18 48  1  0
 18 49  1  0
 18 50  1  0
 19 20  1  0
 19 51  1  0
 19 52  1  0
 20 29  1  0
 21 22  1  0
 22 23  1  0
 23 24  1  0
 23 25  2  0
 24 17  1  0
 24 53  1  0
 26 27  2  0
 27 20  1  0
 27 30  1  0
 28 26  1  0
 28 29  2  0
 28 33  1  0
 29 54  1  0
 30 31  1  0
 30 55  1  0
 30 56  1  0
 31 32  1  0
 31 57  1  0
 31 58  1  0
 32 59  1  0
 32 60  1  0
 32 61  1  0
 33 34  2  0
 34 35  1  0
 34 62  1  0
 35 36  2  0
 35 63  1  0
 36 37  1  0
 37 38  2  0
 37 64  1  0
 38 33  1  0
 38 65  1  0
M  END
> <Name>
CHEMBL4285849

> <Clean Energy>
111.033997

> <chembl_id>
CHEMBL4285849

> <chembl_pref_name>
None

> <efficacy>
0.068376068

> <Forcefield>
MMFF

> <ForcefieldBase>
MMFF

> <ForcefieldFFML>
<?xml version="1.0" encoding="UTF-8"?>
<!DOCTYPE ffml SYSTEM "Ffml.dtd">
<ffml version="1.0">
<forcefield name="MMFF" derivedFrom="MMFF" base="MMFF">
<atomTypes>
<atomType
name="C100"
element="C"
mass="12.011"
annotation=""/>
<atomType
name="O101"
element="O"
mass="16"
annotation=""/>
<atomType
name="N102"
element="N"
mass="14.007"
annotation=""/>
<atomType
name="H103"
element="H"
mass="1.008"
annotation=""/>
</atomTypes>
<parameters>
</parameters>
</forcefield>
</ffml>

> <Initial Potential Energy>
340.63083

> <Initial RMS Gradient>
41.12358

> <Minimization Criteria>
STEEPD> Minimization exiting with gradient tolerance ( 3.0000000) satisfied.

> <CHARMm Energy>
76.11159

> <Potential Energy>
76.11159

> <RMS Gradient>
0.11383

> <Bond Energy>
8.56125

> <Angle Energy>
23.05045

> <STRBend>
0.28253

> <Dihedral Energy>
18.09226

> <OOPLane>
0.28438

> <Van der Waals Energy>
70.29257

> <Electrostatic Energy>
-44.45185

> <Hydrogen Bond Energy>
0

> <Solvation Free Energy>
0

> <HasGasteigerCharges>
true

> <REMARK99>
REMARK  99  MacroMolecule created from Mol2 file
REMARK  99  CHEMBL4285849
REMARK  99  PROTEIN
REMARK  99  GASTEIGER
REMARK  99
REMARK  99

$$$$
CHEMBL217118
  SciTegic05292516403D

 64 68  0  0  0  0            999 V2000
   -2.6412   -9.4252   -0.6647 C   0  0
   -2.2588  -10.7430   -0.8855 C   0  0
   -1.1359  -11.3249   -0.3933 N   0  0
   -1.8132   -8.6774    0.1901 C   0  0
   -0.6957   -9.3184    0.8335 C   0  0
   -0.3362  -10.6263    0.4331 C   0  0
    0.8953  -11.1345    0.8806 C   0  0
    1.6661  -10.4456    1.8415 C   0  0
    1.2533   -9.2255    2.3319 C   0  0
    0.0970   -8.6629    1.8149 C   0  0
    1.5107  -12.3972    0.3273 C   0  0
    1.6659  -13.3526    1.2915 F   0  0
    2.7750  -12.1487   -0.1473 F   0  0
    0.8477  -13.0107   -0.6900 F   0  0
   -3.8277   -8.8653   -1.4259 C   0  0
   -5.1884   -8.8576   -0.7485 C   0  0
   -6.0591   -7.7726   -0.9751 C   0  0
   -7.3704   -7.7720   -0.4813 C   0  0
   -7.8336   -8.8628    0.2497 C   0  0
   -6.9835   -9.9452    0.4885 C   0  0
   -5.6723   -9.9450   -0.0085 C   0  0
   -1.9293   -7.2025    0.2973 C   0  0
   -0.8642   -6.4135   -0.2083 C   0  0
   -0.7415   -5.0460    0.0481 C   0  0
   -1.8002   -4.4459    0.7389 C   0  0
   -2.9130   -5.1843    1.1737 C   0  0
   -2.9701   -6.5643    0.9716 C   0  0
    0.3857   -4.3090   -0.2717 N   0  0
    1.5422   -4.8198   -0.9927 C   0  0
    2.7837   -4.0015   -0.6953 C   0  0
    3.4005   -3.2254   -1.6870 C   0  0
    4.5863   -2.5308   -1.4177 C   0  0
    5.1808   -2.6041   -0.1495 C   0  0
    4.5596   -3.3712    0.8465 C   0  0
    3.3713   -4.0567    0.5768 C   0  0
    6.4786   -1.8769    0.1340 C   0  0
    7.7458   -2.5431   -0.3607 C   0  0
    7.7094   -3.8922   -0.4931 O   0  0
    8.7766   -1.9118   -0.5701 O   0  0
   -2.8353  -11.3899   -1.5432 H   0  0
    2.6142  -10.8607    2.1826 H   0  0
    1.8552   -8.6874    3.0612 H   0  0
   -0.1712   -7.6699    2.1762 H   0  0
   -3.5747   -7.8495   -1.7565 H   0  0
   -3.9435   -9.4294   -2.3625 H   0  0
   -5.7162   -6.9183   -1.5574 H   0  0
   -8.0351   -6.9316   -0.6811 H   0  0
   -8.8591   -8.8775    0.6198 H   0  0
   -7.3506  -10.8050    1.0479 H   0  0
   -5.0440  -10.8128    0.1771 H   0  0
   -0.0726   -6.9286   -0.7480 H   0  0
   -1.7504   -3.3845    0.9669 H   0  0
   -3.7216   -4.6897    1.7084 H   0  0
   -3.8112   -7.1323    1.3704 H   0  0
    0.3911   -3.3147   -0.0751 H   0  0
    1.7782   -5.8514   -0.7058 H   0  0
    1.3288   -4.8225   -2.0677 H   0  0
    2.9633   -3.1757   -2.6823 H   0  0
    5.0453   -1.9281   -2.2044 H   0  0
    4.9935   -3.4509    1.8423 H   0  0
    2.8997   -4.6502    1.3600 H   0  0
    6.4198   -0.8825   -0.3259 H   0  0
    6.5886   -1.7236    1.2141 H   0  0
    6.8464   -4.3317   -0.3285 H   0  0
  1  2  2  0
  1 15  1  0
  2  3  1  0
  2 40  1  0
  3  6  2  0
  4  1  1  0
  4 22  1  0
  5  4  2  0
  5  6  1  0
  6  7  1  0
  7  8  2  0
  7 11  1  0
  8  9  1  0
  8 41  1  0
  9 10  2  0
  9 42  1  0
 10  5  1  0
 10 43  1  0
 11 12  1  0
 11 13  1  0
 11 14  1  0
 15 16  1  0
 15 44  1  0
 15 45  1  0
 16 17  2  0
 17 18  1  0
 17 46  1  0
 18 19  2  0
 18 47  1  0
 19 20  1  0
 19 48  1  0
 20 21  2  0
 20 49  1  0
 21 16  1  0
 21 50  1  0
 22 23  2  0
 23 24  1  0
 23 51  1  0
 24 25  2  0
 24 28  1  0
 25 26  1  0
 25 52  1  0
 26 27  2  0
 26 53  1  0
 27 22  1  0
 27 54  1  0
 28 29  1  0
 28 55  1  0
 29 30  1  0
 29 56  1  0
 29 57  1  0
 30 31  2  0
 31 32  1  0
 31 58  1  0
 32 33  2  0
 32 59  1  0
 33 34  1  0
 33 36  1  0
 34 35  2  0
 34 60  1  0
 35 30  1  0
 35 61  1  0
 36 37  1  0
 36 62  1  0
 36 63  1  0
 37 38  1  0
 37 39  2  0
 38 64  1  0
M  END
> <Name>
CHEMBL217118

> <Clean Energy>
34.5882

> <chembl_id>
CHEMBL217118

> <chembl_pref_name>
None

> <efficacy>
0.2

> <Forcefield>
MMFF

> <ForcefieldBase>
MMFF

> <ForcefieldFFML>
<?xml version="1.0" encoding="UTF-8"?>
<!DOCTYPE ffml SYSTEM "Ffml.dtd">
<ffml version="1.0">
<forcefield name="MMFF" derivedFrom="MMFF" base="MMFF">
<atomTypes>
<atomType
name="C100"
element="C"
mass="12.011"
annotation=""/>
<atomType
name="N101"
element="N"
mass="14.007"
annotation=""/>
<atomType
name="F102"
element="F"
mass="18.998"
annotation=""/>
<atomType
name="O103"
element="O"
mass="16"
annotation=""/>
<atomType
name="H104"
element="H"
mass="1.008"
annotation=""/>
</atomTypes>
<parameters>
</parameters>
</forcefield>
</ffml>

> <Initial Potential Energy>
419.55395

> <Initial RMS Gradient>
73.16694

> <Minimization Criteria>
CONJUG> Minimization exiting with gradient tolerance ( 0.0100000) satisfied.

> <CHARMm Energy>
84.83872

> <Potential Energy>
84.83872

> <RMS Gradient>
0.0094

> <Bond Energy>
12.7838

> <Angle Energy>
16.24679

> <STRBend>
-0.46326

> <Dihedral Energy>
16.81363

> <OOPLane>
0.6416

> <Van der Waals Energy>
84.70589

> <Electrostatic Energy>
-45.88973

> <Hydrogen Bond Energy>
0

> <Solvation Free Energy>
0

> <HasGasteigerCharges>
true

> <REMARK99>
REMARK  99  MacroMolecule created from Mol2 file
REMARK  99  CHEMBL217118
REMARK  99  PROTEIN
REMARK  99  GASTEIGER
REMARK  99
REMARK  99

$$$$
CHEMBL445921
  SciTegic05292516403D

 68 71  0  0  0  0            999 V2000
   -0.7381   -1.7678   -0.4732 N   0  0
    0.3259   -1.0165   -0.9934 C   0  0
    0.0157    0.3354   -0.8957 C   0  0
   -1.6343   -0.8758    0.1302 C   0  0
   -1.2250    0.4203   -0.1938 C   0  0
   -0.8958   -3.1847   -0.5588 C   0  0
   -5.1453    2.3257    1.8117 C   0  0
    7.1257    4.0578    0.4783 C   0  0
   -2.7588   -1.0806    0.9516 C   0  0
    0.7844    1.5017   -1.4548 C   0  0
   -2.1632   -3.9255   -0.3620 C   0  0
   -2.0169    1.5142    0.2239 C   0  0
    5.3715    2.8466   -0.6401 O   0  0
    6.5207    2.6821    0.2171 C   0  0  1  0  0  0
   -3.8034    2.4617    1.3670 O   0  0
    0.0856   -3.8687   -0.8486 O   0  0
   -3.1534    1.3166    1.0081 C   0  0
    7.8512    4.3246    1.4271 O   0  0
    4.1437    2.6648   -0.0651 C   0  0
    1.8391    1.9494   -0.4654 C   0  0
   -2.1922   -4.9839    0.5486 C   0  0
   -3.2997   -3.6255   -1.1221 C   0  0
   -5.2068    1.7453    3.0312 F   0  0
   -5.7017    3.5546    1.9125 F   0  0
   -5.8894    1.6078    0.9405 F   0  0
   -3.4991    0.0274    1.3840 C   0  0
    3.1579    2.1434   -0.9110 C   0  0
    1.5339   -1.6477   -1.6069 C   0  0
    6.8522    4.9674   -0.4924 O   0  0
   -4.5144   -5.4190   -0.0266 C   0  0
   -4.4751   -4.3707   -0.9487 C   0  0
   -3.3707   -5.7131    0.7229 C   0  0
   -5.5887   -6.2243    0.2365 O   0  0
    2.5148    2.8417    1.6988 C   0  0
    3.8156    3.0332    1.2363 C   0  0
    1.5365    2.3111    0.8556 C   0  0
    7.5137    1.7939   -0.5430 C   0  0
   -6.7286   -6.0868   -0.6042 C   0  0
    8.6880    1.3300    0.3196 C   0  0
    9.5978    0.3822   -0.4469 C   0  0
   -3.0763   -2.0683    1.2791 H   0  0
    1.2389    1.2132   -2.4102 H   0  0
    0.1195    2.3456   -1.6727 H   0  0
   -1.7207    2.5268   -0.0395 H   0  0
    6.2578    2.2112    1.1711 H   0  0
   -1.3045   -5.2491    1.1180 H   0  0
   -3.2820   -2.8257   -1.8589 H   0  0
   -4.3547   -0.1734    2.0246 H   0  0
    3.4265    1.9025   -1.9379 H   0  0
    2.2508   -0.8936   -1.9453 H   0  0
    1.2589   -2.2481   -2.4798 H   0  0
    2.0548   -2.2776   -0.8790 H   0  0
    6.1786    4.5869   -1.1012 H   0  0
   -5.3399   -4.1106   -1.5511 H   0  0
   -3.3939   -6.5289    1.4411 H   0  0
    2.2538    3.1295    2.7148 H   0  0
    4.5332    3.4919    1.9076 H   0  0
    0.5292    2.2026    1.2474 H   0  0
    6.9787    0.9165   -0.9294 H   0  0
    7.8906    2.3261   -1.4263 H   0  0
   -7.4598   -6.8433   -0.3040 H   0  0
   -6.4704   -6.2670   -1.6529 H   0  0
   -7.1920   -5.1033   -0.4756 H   0  0
    9.2778    2.1896    0.6550 H   0  0
    8.3142    0.8209    1.2155 H   0  0
   10.4333    0.0650    0.1851 H   0  0
   10.0099    0.8683   -1.3371 H   0  0
    9.0537   -0.5131   -0.7645 H   0  0
  2  1  1  0
  3  2  2  0
  3  5  1  0
  4  1  1  0
  5  4  1  0
  6  1  1  0
  7 15  1  0
  8 14  1  0
  9  4  2  0
  9 41  1  0
 10  3  1  0
 10 42  1  0
 10 43  1  0
 11  6  1  0
 12  5  2  0
 12 44  1  0
 13 19  1  0
 14 13  1  0
 14 45  1  0
 15 17  1  0
 16  6  2  0
 17 12  1  0
 17 26  2  0
 18  8  2  0
 19 27  2  0
 20 10  1  0
 21 11  1  0
 21 46  1  0
 22 11  2  0
 22 47  1  0
 23  7  1  0
 24  7  1  0
 25  7  1  0
 26  9  1  0
 26 48  1  0
 27 20  1  0
 27 49  1  0
 28  2  1  0
 28 50  1  0
 28 51  1  0
 28 52  1  0
 29  8  1  0
 29 53  1  0
 30 31  2  0
 30 32  1  0
 31 22  1  0
 31 54  1  0
 32 21  2  0
 32 55  1  0
 33 30  1  0
 34 36  1  0
 34 56  1  0
 35 19  1  0
 35 34  2  0
 35 57  1  0
 36 20  2  0
 36 58  1  0
 37 14  1  0
 37 59  1  0
 37 60  1  0
 38 33  1  0
 38 61  1  0
 38 62  1  0
 38 63  1  0
 39 37  1  0
 39 64  1  0
 39 65  1  0
 40 39  1  0
 40 66  1  0
 40 67  1  0
 40 68  1  0
M  END
> <Name>
CHEMBL445921

> <Clean Energy>
66.298302

> <chembl_id>
CHEMBL445921

> <chembl_pref_name>
None

> <efficacy>
0.42

> <Forcefield>
MMFF

> <ForcefieldBase>
MMFF

> <ForcefieldFFML>
<?xml version="1.0" encoding="UTF-8"?>
<!DOCTYPE ffml SYSTEM "Ffml.dtd">
<ffml version="1.0">
<forcefield name="MMFF" derivedFrom="MMFF" base="MMFF">
<atomTypes>
<atomType
name="N100"
element="N"
mass="14.007"
annotation=""/>
<atomType
name="C101"
element="C"
mass="12.011"
annotation=""/>
<atomType
name="O102"
element="O"
mass="16"
annotation=""/>
<atomType
name="F103"
element="F"
mass="18.998"
annotation=""/>
<atomType
name="H104"
element="H"
mass="1.008"
annotation=""/>
</atomTypes>
<parameters>
</parameters>
</forcefield>
</ffml>

> <Initial Potential Energy>
594.23554

> <Initial RMS Gradient>
186.72018

> <Minimization Criteria>
STEEPD> Minimization exiting with gradient tolerance ( 3.0000000) satisfied.

> <CHARMm Energy>
126.97819

> <Potential Energy>
126.97819

> <RMS Gradient>
0.02356

> <Bond Energy>
9.19666

> <Angle Energy>
29.2347

> <STRBend>
-0.40993

> <Dihedral Energy>
9.21572

> <OOPLane>
0.30555

> <Van der Waals Energy>
73.24301

> <Electrostatic Energy>
6.19248

> <Hydrogen Bond Energy>
0

> <Solvation Free Energy>
0

> <HasGasteigerCharges>
true

> <REMARK99>
REMARK  99  MacroMolecule created from Mol2 file
REMARK  99  CHEMBL445921
REMARK  99  PROTEIN
REMARK  99  GASTEIGER
REMARK  99
REMARK  99

$$$$
CHEMBL198708
  SciTegic05292516403D

 60 61  0  0  0  0            999 V2000
   -2.7076   -0.0113    0.0487 C   0  0
   -3.9601    0.5018    0.4275 C   0  0
   -2.6558   -1.3495   -0.3737 C   0  0
   -3.8077   -2.1343   -0.4719 C   0  0
   -5.1302   -0.2755    0.3531 C   0  0
   -5.0532   -1.6085   -0.1085 C   0  0
    6.1707   -0.1050    0.0084 C   0  0
   -1.4392    0.8241    0.1044 C   0  0  2  0  0  0
    5.7680   -1.1377    0.5246 O   0  0
    0.5483    1.6409   -1.2123 C   0  0
    1.5880    0.9764   -1.7402 C   0  0
   -1.4586   -1.8877   -0.7705 O   0  0
    7.4607    0.3372    0.0422 O   0  0
   -1.6511    2.0455    0.8296 O   0  0
   -0.8790    1.1587   -1.2953 C   0  0
    5.3197    0.8789   -0.7610 C   0  0
   -6.3775    0.2497    0.7245 C   0  0
   -6.2245   -2.3775   -0.1935 C   0  0
    3.0149    1.4320   -1.6338 C   0  0
   -0.8890   -2.6982    0.2671 C   0  0
    8.3472   -0.5237    0.7581 C   0  0
    3.8627    0.4246   -0.8544 C   0  0
    0.6161   -2.7576    0.0208 C   0  0
    2.8466   -3.5982    0.8341 C   0  0
    1.3378   -3.5873    1.0791 C   0  0
    3.5781   -4.4166    1.8855 C   0  0
   -7.4567   -1.8380    0.1757 C   0  0
   -7.5329   -0.5267    0.6352 C   0  0
   -4.0362    1.5217    0.7972 H   0  0
   -3.7294   -3.1538   -0.8405 H   0  0
   -0.6977    0.2649    0.6876 H   0  0
    0.7154    2.5687   -0.6676 H   0  0
    1.4189    0.0450   -2.2784 H   0  0
   -2.1832    2.6276    0.2599 H   0  0
   -1.4775    1.9513   -1.7620 H   0  0
   -0.9339    0.2934   -1.9651 H   0  0
    5.3738    1.8475   -0.2517 H   0  0
    5.7398    0.9797   -1.7680 H   0  0
   -6.4594    1.2725    1.0856 H   0  0
   -6.1866   -3.4051   -0.5484 H   0  0
    3.4170    1.5516   -2.6469 H   0  0
    3.0734    2.4149   -1.1504 H   0  0
   -1.0841   -2.2748    1.2612 H   0  0
   -1.3233   -3.7034    0.2148 H   0  0
    9.3472   -0.0824    0.7261 H   0  0
    8.3889   -1.5101    0.2856 H   0  0
    8.0389   -0.6067    1.8050 H   0  0
    3.8151   -0.5596   -1.3385 H   0  0
    3.4518    0.2947    0.1554 H   0  0
    0.8052   -3.1686   -0.9788 H   0  0
    1.0182   -1.7368    0.0051 H   0  0
    3.0604   -4.0127   -0.1580 H   0  0
    3.2317   -2.5721    0.8463 H   0  0
    0.9532   -4.6143    1.0674 H   0  0
    1.1310   -3.1752    2.0743 H   0  0
    4.6551   -4.4082    1.6902 H   0  0
    3.2393   -5.4575    1.8781 H   0  0
    3.4114   -4.0075    2.8871 H   0  0
   -8.3564   -2.4431    0.1048 H   0  0
   -8.4920   -0.1057    0.9243 H   0  0
  2  1  2  0
  2 29  1  0
  3  1  1  0
  4  3  2  0
  4 30  1  0
  5  2  1  0
  6  4  1  0
  6  5  2  0
  7 16  1  0
  8  1  1  0
  8 31  1  0
  9  7  2  0
 10 15  1  0
 10 32  1  0
 11 10  2  0
 11 33  1  0
 12  3  1  0
 13  7  1  0
 14  8  1  0
 14 34  1  0
 15  8  1  0
 15 35  1  0
 15 36  1  0
 16 22  1  0
 16 37  1  0
 16 38  1  0
 17  5  1  0
 17 39  1  0
 18  6  1  0
 18 40  1  0
 19 11  1  0
 19 41  1  0
 19 42  1  0
 20 12  1  0
 20 43  1  0
 20 44  1  0
 21 13  1  0
 21 45  1  0
 21 46  1  0
 21 47  1  0
 22 19  1  0
 22 48  1  0
 22 49  1  0
 23 20  1  0
 23 50  1  0
 23 51  1  0
 24 25  1  0
 24 52  1  0
 24 53  1  0
 25 23  1  0
 25 54  1  0
 25 55  1  0
 26 24  1  0
 26 56  1  0
 26 57  1  0
 26 58  1  0
 27 18  2  0
 27 28  1  0
 27 59  1  0
 28 17  2  0
 28 60  1  0
M  END
> <Name>
CHEMBL198708

> <Clean Energy>
25.179501

> <chembl_id>
CHEMBL198708

> <chembl_pref_name>
None

> <efficacy>
0.26

> <Forcefield>
MMFF

> <ForcefieldBase>
MMFF

> <ForcefieldFFML>
<?xml version="1.0" encoding="UTF-8"?>
<!DOCTYPE ffml SYSTEM "Ffml.dtd">
<ffml version="1.0">
<forcefield name="MMFF" derivedFrom="MMFF" base="MMFF">
<atomTypes>
<atomType
name="C100"
element="C"
mass="12.011"
annotation=""/>
<atomType
name="O101"
element="O"
mass="16"
annotation=""/>
<atomType
name="H102"
element="H"
mass="1.008"
annotation=""/>
</atomTypes>
<parameters>
</parameters>
</forcefield>
</ffml>

> <Initial Potential Energy>
147.24039

> <Initial RMS Gradient>
26.95103

> <Minimization Criteria>
CONJUG> Minimization exiting with gradient tolerance ( 0.0100000) satisfied.

> <CHARMm Energy>
48.06427

> <Potential Energy>
48.06427

> <RMS Gradient>
0.00926

> <Bond Energy>
5.59778

> <Angle Energy>
5.92548

> <STRBend>
0.07375

> <Dihedral Energy>
-4.83113

> <OOPLane>
0.03295

> <Van der Waals Energy>
50.11306

> <Electrostatic Energy>
-8.84763

> <Hydrogen Bond Energy>
0

> <Solvation Free Energy>
0

> <HasGasteigerCharges>
true

> <REMARK99>
REMARK  99  MacroMolecule created from Mol2 file
REMARK  99  CHEMBL198708
REMARK  99  PROTEIN
REMARK  99  GASTEIGER
REMARK  99
REMARK  99

$$$$
CHEMBL3397562
  SciTegic05292516403D

 55 57  0  0  0  0            999 V2000
    1.7767   -3.6493    1.9711 C   0  0
    2.1110   -3.2108    0.5343 C   0  0  2  0  0  0
    3.5751   -3.5713    0.2072 C   0  0
    1.5218   -2.8776    2.8866 O   0  0
    1.7356   -4.9939    2.1554 O   0  0
    2.0396   -1.7897    0.3513 O   0  0
    0.8362   -1.1608    0.2164 C   0  0
    0.9368    0.1999   -0.0901 C   0  0
   -0.2042    0.9980   -0.2333 C   0  0
   -1.4765    0.4454   -0.0587 C   0  0
   -1.5770   -0.9234    0.2320 C   0  0
   -0.4280   -1.7229    0.3709 C   0  0
   -2.7256    1.2778   -0.1702 C   0  0
   -2.6064    2.7590   -0.0350 C   0  0
   -2.9154    3.5834   -1.1228 C   0  0
   -2.8477    4.9709   -0.9820 C   0  0
   -2.4656    5.5299    0.2399 C   0  0
   -2.1489    4.7032    1.3214 C   0  0
   -2.2217    3.3153    1.1886 C   0  0
   -3.8675    0.6749   -0.3675 N   0  0
   -4.9470    1.5747   -0.3887 O   0  0
   -6.1563    0.8393   -0.5671 C   0  0
   -7.3152    1.8264   -0.5940 C   0  0
   -8.6493    1.1272   -0.7827 C   0  0
    3.7881   -5.0048   -0.2175 C   0  0
    4.5245   -5.8843    0.5884 C   0  0
    4.7066   -7.2117    0.2000 C   0  0
    4.1582   -7.6701   -0.9965 C   0  0
    3.4319   -6.8011   -1.8084 C   0  0
    3.2515   -5.4724   -1.4246 C   0  0
    1.4181   -3.6993   -0.1609 H   0  0
    3.9457   -2.9308   -0.6055 H   0  0
    4.2160   -3.3331    1.0669 H   0  0
    1.9614   -5.5353    1.3724 H   0  0
    1.9195    0.6508   -0.2122 H   0  0
   -0.0711    2.0478   -0.4796 H   0  0
   -2.5566   -1.3766    0.3749 H   0  0
   -0.5673   -2.7674    0.6269 H   0  0
   -3.2276    3.1406   -2.0650 H   0  0
   -3.1118    5.6206   -1.8144 H   0  0
   -2.4315    6.6129    0.3529 H   0  0
   -1.8613    5.1408    2.2744 H   0  0
   -1.9961    2.6741    2.0370 H   0  0
   -6.1057    0.2821   -1.5097 H   0  0
   -6.2748    0.1314    0.2615 H   0  0
   -7.3265    2.4053    0.3373 H   0  0
   -7.1591    2.5545   -1.3991 H   0  0
   -9.4626    1.8594   -0.7979 H   0  0
   -8.8417    0.4227    0.0327 H   0  0
   -8.6721    0.5745   -1.7273 H   0  0
    4.9590   -5.5422    1.5262 H   0  0
    5.2825   -7.8893    0.8271 H   0  0
    4.3063   -8.7039   -1.3006 H   0  0
    3.0108   -7.1552   -2.7464 H   0  0
    2.6998   -4.8012   -2.0813 H   0  0
  1  2  1  0
  1  4  2  0
  1  5  1  0
  2  3  1  0
  2  6  1  0
  2 31  1  0
  3 25  1  0
  3 32  1  0
  3 33  1  0
  5 34  1  0
  6  7  1  0
  7  8  1  0
  7 12  2  0
  8  9  2  0
  8 35  1  0
  9 10  1  0
  9 36  1  0
 10 11  2  0
 10 13  1  0
 11 12  1  0
 11 37  1  0
 12 38  1  0
 13 14  1  0
 13 20  2  0
 14 15  1  0
 14 19  2  0
 15 16  2  0
 15 39  1  0
 16 17  1  0
 16 40  1  0
 17 18  2  0
 17 41  1  0
 18 19  1  0
 18 42  1  0
 19 43  1  0
 20 21  1  0
 21 22  1  0
 22 23  1  0
 22 44  1  0
 22 45  1  0
 23 24  1  0
 23 46  1  0
 23 47  1  0
 24 48  1  0
 24 49  1  0
 24 50  1  0
 25 26  1  0
 25 30  2  0
 26 27  2  0
 26 51  1  0
 27 28  1  0
 27 52  1  0
 28 29  2  0
 28 53  1  0
 29 30  1  0
 29 54  1  0
 30 55  1  0
M  END
> <Name>
CHEMBL3397562

> <Clean Energy>
20.574499

> <chembl_id>
CHEMBL3397562

> <chembl_pref_name>
None

> <efficacy>
0.11

> <Forcefield>
MMFF

> <ForcefieldBase>
MMFF

> <ForcefieldFFML>
<?xml version="1.0" encoding="UTF-8"?>
<!DOCTYPE ffml SYSTEM "Ffml.dtd">
<ffml version="1.0">
<forcefield name="MMFF" derivedFrom="MMFF" base="MMFF">
<atomTypes>
<atomType
name="C100"
element="C"
mass="12.011"
annotation=""/>
<atomType
name="O101"
element="O"
mass="16"
annotation=""/>
<atomType
name="N102"
element="N"
mass="14.007"
annotation=""/>
<atomType
name="H103"
element="H"
mass="1.008"
annotation=""/>
</atomTypes>
<parameters>
</parameters>
</forcefield>
</ffml>

> <Initial Potential Energy>
239.21504

> <Initial RMS Gradient>
35.60351

> <Minimization Criteria>
CONJUG> Minimization exiting with gradient tolerance ( 0.0100000) satisfied.

> <CHARMm Energy>
111.72699

> <Potential Energy>
111.72699

> <RMS Gradient>
0.00876

> <Bond Energy>
6.86216

> <Angle Energy>
16.7262

> <STRBend>
1.05121

> <Dihedral Energy>
2.95831

> <OOPLane>
0.05473

> <Van der Waals Energy>
60.69525

> <Electrostatic Energy>
23.37913

> <Hydrogen Bond Energy>
0

> <Solvation Free Energy>
0

> <HasGasteigerCharges>
true

> <REMARK99>
REMARK  99  MacroMolecule created from Mol2 file
REMARK  99  CHEMBL3397562
REMARK  99  PROTEIN
REMARK  99  GASTEIGER
REMARK  99
REMARK  99

$$$$
CHEMBL2204695
  SciTegic05292516403D

 51 53  0  0  0  0            999 V2000
   16.2448  -11.2092    0.1314 C   0  0
   14.9136  -11.9899    0.3108 C   0  0
   16.3913  -10.1886   -0.5287 O   0  0
   17.3162  -11.7534    0.7656 O   0  0
   13.9557  -11.1943   -0.4055 O   0  0
   12.6202  -11.4266   -0.4826 C   0  0
   11.9143  -12.5248   -0.0047 C   0  0
   10.5262  -12.6058   -0.1727 C   0  0
    9.8275  -11.5883   -0.8284 C   0  0
   10.5356  -10.4808   -1.3039 C   0  0
   11.9177  -10.4084   -1.1349 C   0  0
    8.3305  -11.6418   -0.9794 C   0  0
    7.7806  -10.7636   -0.0023 O   0  0
    6.4723  -10.4167   -0.1591 C   0  0
    5.5573  -11.0548   -0.9949 C   0  0
    4.2419  -10.5923   -1.0632 C   0  0
    3.8247   -9.5054   -0.2897 C   0  0
    4.7515   -8.8697    0.5445 C   0  0
    6.0648   -9.3298    0.6156 C   0  0
    2.4985   -9.0598   -0.3990 N   0  0
    1.9351   -9.0983    0.7161 N   0  0
    0.6072   -8.6587    0.6025 C   0  0
   -0.4333   -9.5486    0.8878 C   0  0
   -1.7616   -9.1338    0.8011 C   0  0
   -2.0554   -7.8207    0.4360 C   0  0
   -1.0272   -6.9195    0.1639 C   0  0
    0.2998   -7.3369    0.2520 C   0  0
   15.1096  -13.3619   -0.3437 C   0  0
   14.6073  -12.0380    1.8128 C   0  0
   17.1747  -12.5838    1.2537 H   0  0
   12.3895  -13.3448    0.5141 H   0  0
    9.9969  -13.4695    0.2241 H   0  0
   10.0120   -9.6622   -1.7938 H   0  0
   12.4550   -9.5386   -1.5073 H   0  0
    8.0728  -11.3291   -1.9997 H   0  0
    7.9654  -12.6628   -0.8152 H   0  0
    5.8303  -11.9122   -1.6003 H   0  0
    3.5291  -11.0862   -1.7185 H   0  0
    4.4416   -8.0163    1.1423 H   0  0
    6.7794   -8.8343    1.2689 H   0  0
   -0.1997  -10.5709    1.1734 H   0  0
   -2.5674   -9.8299    1.0203 H   0  0
   -3.0899   -7.4969    0.3677 H   0  0
   -1.2624   -5.8944   -0.1122 H   0  0
    1.1051   -6.6373    0.0430 H   0  0
   14.2191  -13.9901   -0.2916 H   0  0
   15.9248  -13.9266    0.1201 H   0  0
   15.3461  -13.2474   -1.4083 H   0  0
   13.6762  -12.5601    2.0404 H   0  0
   14.5016  -11.0230    2.2139 H   0  0
   15.3957  -12.5410    2.3815 H   0  0
  1  2  1  0
  1  3  2  0
  1  4  1  0
  2  5  1  0
  2 28  1  0
  2 29  1  0
  4 30  1  0
  5  6  1  0
  6  7  1  0
  6 11  2  0
  7  8  2  0
  7 31  1  0
  8  9  1  0
  8 32  1  0
  9 10  2  0
  9 12  1  0
 10 11  1  0
 10 33  1  0
 11 34  1  0
 12 13  1  0
 12 35  1  0
 12 36  1  0
 13 14  1  0
 14 15  1  0
 14 19  2  0
 15 16  2  0
 15 37  1  0
 16 17  1  0
 16 38  1  0
 17 18  2  0
 17 20  1  0
 18 19  1  0
 18 39  1  0
 19 40  1  0
 20 21  2  0
 21 22  1  0
 22 23  1  0
 22 27  2  0
 23 24  2  0
 23 41  1  0
 24 25  1  0
 24 42  1  0
 25 26  2  0
 25 43  1  0
 26 27  1  0
 26 44  1  0
 27 45  1  0
 28 46  1  0
 28 47  1  0
 28 48  1  0
 29 49  1  0
 29 50  1  0
 29 51  1  0
M  END
> <Name>
CHEMBL2204695

> <Clean Energy>
17.2533

> <chembl_id>
CHEMBL2204695

> <chembl_pref_name>
None

> <efficacy>
0.199430199

> <Forcefield>
MMFF

> <ForcefieldBase>
MMFF

> <ForcefieldFFML>
<?xml version="1.0" encoding="UTF-8"?>
<!DOCTYPE ffml SYSTEM "Ffml.dtd">
<ffml version="1.0">
<forcefield name="MMFF" derivedFrom="MMFF" base="MMFF">
<atomTypes>
<atomType
name="C100"
element="C"
mass="12.011"
annotation=""/>
<atomType
name="O101"
element="O"
mass="16"
annotation=""/>
<atomType
name="N102"
element="N"
mass="14.007"
annotation=""/>
<atomType
name="H103"
element="H"
mass="1.008"
annotation=""/>
</atomTypes>
<parameters>
</parameters>
</forcefield>
</ffml>

> <Initial Potential Energy>
169.71726

> <Initial RMS Gradient>
31.33676

> <Minimization Criteria>
STEEPD> Minimization exiting with gradient tolerance ( 3.0000000) satisfied.

> <CHARMm Energy>
100.1482

> <Potential Energy>
100.1482

> <RMS Gradient>
0.01292

> <Bond Energy>
5.55163

> <Angle Energy>
23.82103

> <STRBend>
-0.25046

> <Dihedral Energy>
5.86516

> <OOPLane>
0.03388

> <Van der Waals Energy>
61.63882

> <Electrostatic Energy>
3.48813

> <Hydrogen Bond Energy>
0

> <Solvation Free Energy>
0

> <HasGasteigerCharges>
true

> <REMARK99>
REMARK  99  MacroMolecule created from Mol2 file
REMARK  99  CHEMBL2204695
REMARK  99  PROTEIN
REMARK  99  GASTEIGER
REMARK  99
REMARK  99

$$$$
CHEMBL113301
  SciTegic05292516403D

 69 73  0  0  0  0            999 V2000
   14.1927   -2.6373    1.6339 N   0  0
    1.5125   -3.1988   -0.2884 C   0  0
   13.3484   -2.1653    2.5862 C   0  0
   12.1670   -3.1001    0.5784 C   0  0
   13.6473   -3.1724    0.5052 C   0  0
    0.7388   -4.3417   -0.5570 C   0  0
   -1.2604   -2.9797   -0.3656 C   0  0
   11.6907   -2.3717    2.0664 S   0  0
    0.9087   -1.9476   -0.0379 C   0  0
   -0.6646   -4.2255   -0.6368 C   0  0
   -0.4954   -1.8263   -0.1190 C   0  0
    2.8851   -3.2226   -0.2385 O   0  0
   11.3924   -3.5410   -0.4203 C   0  0
   -2.6323   -2.8875   -0.3974 O   0  0
    1.4090   -5.6698   -0.7872 C   0  0
    3.5653   -4.3708   -0.7799 C   0  0  2  0  0  0
   13.6813   -1.6751    3.6516 O   0  0
   14.2902   -3.6429   -0.4196 O   0  0
    9.9286   -3.4993   -0.4444 C   0  0
    2.8561   -5.6545   -0.3309 C   0  0
    5.7734   -3.3090   -0.6959 O   0  0
   -3.1871   -3.0919    0.9122 C   0  0
    4.9858   -4.3860   -0.1711 C   0  0
    7.1267   -3.4250   -0.5477 C   0  0
    9.1655   -4.2534    0.4535 C   0  0
    9.2801   -2.7070   -1.3947 C   0  0
    1.7702   -0.7405    0.2474 C   0  0
    7.7695   -4.2096    0.4089 C   0  0
    7.8858   -2.6646   -1.4381 C   0  0
   -1.5299   -5.4193   -0.9547 C   0  0
   -1.1717   -0.4951    0.0848 C   0  0
   -4.4960   -3.8429    0.8080 C   0  0
    3.6502   -4.2362   -2.3109 C   0  0
   -5.3685   -3.6344   -0.2702 C   0  0
   -4.8771   -4.7330    1.8239 C   0  0
   -6.0899   -5.4181    1.7488 C   0  0
   -6.5800   -4.3212   -0.3453 C   0  0
   -6.9381   -5.2143    0.6623 C   0  0
   15.1914   -2.5970    1.7651 H   0  0
   11.8509   -3.9532   -1.3183 H   0  0
    0.8871   -6.4606   -0.2356 H   0  0
    1.3554   -5.9170   -1.8540 H   0  0
    2.8689   -5.7076    0.7669 H   0  0
    3.3711   -6.5484   -0.7022 H   0  0
   -2.4986   -3.6482    1.5631 H   0  0
   -3.3801   -2.1134    1.3670 H   0  0
    4.9234   -4.2671    0.9180 H   0  0
    5.4625   -5.3455   -0.4125 H   0  0
    9.6496   -4.8792    1.2001 H   0  0
    9.8497   -2.1122   -2.1045 H   0  0
    1.2960   -0.0810    0.9814 H   0  0
    1.9478   -0.1831   -0.6774 H   0  0
    2.7369   -1.0162    0.6804 H   0  0
    7.2176   -4.7910    1.1389 H   0  0
    7.3920   -2.0419   -2.1798 H   0  0
   -1.0480   -6.0804   -1.6816 H   0  0
   -2.4798   -5.1234   -1.4109 H   0  0
   -1.7386   -5.9827   -0.0401 H   0  0
   -0.6165    0.3076   -0.4111 H   0  0
   -1.2500   -0.2753    1.1540 H   0  0
   -2.1768   -0.4739   -0.3480 H   0  0
    4.2203   -5.0612   -2.7501 H   0  0
    4.1241   -3.2912   -2.5991 H   0  0
    2.6616   -4.2176   -2.7804 H   0  0
   -5.0971   -2.9407   -1.0641 H   0  0
   -4.2237   -4.9016    2.6770 H   0  0
   -6.3801   -6.1077    2.5379 H   0  0
   -7.2466   -4.1569   -1.1882 H   0  0
   -7.8827   -5.7482    0.6034 H   0  0
  1 39  1  0
  2  6  1  0
  2 12  1  0
  3  1  1  0
  4  5  1  0
  5  1  1  0
  6 15  1  0
  7 10  1  0
  8  3  1  0
  8  4  1  0
  9  2  2  0
 10  6  2  0
 11  7  2  0
 11  9  1  0
 12 16  1  0
 13  4  2  0
 13 40  1  0
 14  7  1  0
 15 20  1  0
 15 41  1  0
 15 42  1  0
 16 23  1  0
 17  3  2  0
 18  5  2  0
 19 13  1  0
 20 16  1  0
 20 43  1  0
 20 44  1  0
 21 24  1  0
 22 14  1  0
 22 45  1  0
 22 46  1  0
 23 21  1  0
 23 47  1  0
 23 48  1  0
 24 28  2  0
 24 29  1  0
 25 19  2  0
 25 49  1  0
 26 19  1  0
 26 50  1  0
 27  9  1  0
 27 51  1  0
 27 52  1  0
 27 53  1  0
 28 25  1  0
 28 54  1  0
 29 26  2  0
 29 55  1  0
 30 10  1  0
 30 56  1  0
 30 57  1  0
 30 58  1  0
 31 11  1  0
 31 59  1  0
 31 60  1  0
 31 61  1  0
 32 22  1  0
 33 16  1  0
 33 62  1  0
 33 63  1  0
 33 64  1  0
 34 32  2  0
 34 65  1  0
 35 32  1  0
 35 66  1  0
 36 35  2  0
 36 67  1  0
 37 34  1  0
 37 38  2  0
 37 68  1  0
 38 36  1  0
 38 69  1  0
M  END
> <Name>
CHEMBL113301

> <Clean Energy>
56.4063

> <chembl_id>
CHEMBL113301

> <chembl_pref_name>
None

> <efficacy>
0.150316456

> <Forcefield>
MMFF

> <ForcefieldBase>
MMFF

> <ForcefieldFFML>
<?xml version="1.0" encoding="UTF-8"?>
<!DOCTYPE ffml SYSTEM "Ffml.dtd">
<ffml version="1.0">
<forcefield name="MMFF" derivedFrom="MMFF" base="MMFF">
<atomTypes>
<atomType
name="N100"
element="N"
mass="14.007"
annotation=""/>
<atomType
name="C101"
element="C"
mass="12.011"
annotation=""/>
<atomType
name="S102"
element="S"
mass="32.066"
annotation=""/>
<atomType
name="O103"
element="O"
mass="16"
annotation=""/>
<atomType
name="H104"
element="H"
mass="1.008"
annotation=""/>
</atomTypes>
<parameters>
</parameters>
</forcefield>
</ffml>

> <Initial Potential Energy>
240.0103

> <Initial RMS Gradient>
38.91169

> <Minimization Criteria>
STEEPD> Minimization exiting with gradient tolerance ( 3.0000000) satisfied.

> <CHARMm Energy>
44.61223

> <Potential Energy>
44.61223

> <RMS Gradient>
0.03997

> <Bond Energy>
7.78491

> <Angle Energy>
21.12965

> <STRBend>
0.87035

> <Dihedral Energy>
19.77356

> <OOPLane>
0.07035

> <Van der Waals Energy>
79.0608

> <Electrostatic Energy>
-84.07738

> <Hydrogen Bond Energy>
0

> <Solvation Free Energy>
0

> <HasGasteigerCharges>
true

> <REMARK99>
REMARK  99  MacroMolecule created from Mol2 file
REMARK  99  CHEMBL113301
REMARK  99  PROTEIN
REMARK  99  GASTEIGER
REMARK  99
REMARK  99

$$$$
CHEMBL4074565
  SciTegic05292516403D

 70 73  0  0  0  0            999 V2000
   42.6776  -13.9990   -0.7879 C   0  0
   42.0949  -13.1135    0.3721 C   0  0
   42.2998  -13.8470    1.7480 C   0  0
   28.1798  -12.4111   -0.0486 C   0  0
   27.8343  -13.7336   -0.3152 C   0  0
   28.8322  -14.6679   -0.5843 C   0  0
   30.1766  -14.2796   -0.5857 C   0  0
   30.5459  -12.9524   -0.3183 C   0  0
   29.5252  -12.0242   -0.0502 C   0  0
   31.9605  -12.5670   -0.3238 C   0  0
   33.0379  -13.3038   -0.5331 N   0  0
   34.0958  -12.4146   -0.4161 C   0  0
   33.5945  -11.1554   -0.1540 C   0  0
   32.2323  -11.2439   -0.0902 O   0  0
   35.5118  -12.8688   -0.5973 C   0  0
   36.4527  -11.9743    0.0198 O   0  0
   37.7667  -12.3502    0.0323 C   0  0
   38.3435  -13.3697   -0.7215 C   0  0
   39.7282  -13.6090   -0.6363 C   0  0
   40.5576  -12.8648    0.2241 C   0  0
   39.9404  -11.8618    0.9950 C   0  0
   38.5732  -11.5970    0.8834 C   0  0
   42.8266  -11.7320    0.3197 C   0  0
   42.6982  -10.9171   -0.8238 C   0  0
   43.2621   -9.6376   -0.8813 C   0  0
   43.9855   -9.1498    0.2002 C   0  0
   44.1400   -9.9394    1.3371 C   0  0
   43.5692  -11.2157    1.3961 C   0  0
   44.4981   -7.8861    0.2791 O   0  0
   45.1308   -7.3814   -0.9130 C   0  0  1  0  0  0
   44.2494   -6.3022   -1.5250 C   0  0
   46.4564   -6.7557   -0.4941 C   0  0
   47.2626   -6.2672   -1.2733 O   0  0
   46.6664   -6.7721    0.8469 O   0  0
   41.6676  -15.2324    1.8783 C   0  0
   44.1771  -14.2873   -0.7107 C   0  0
   34.1897   -9.8249    0.0585 C   0  0
   42.4758  -13.5351   -1.7624 H   0  0
   42.1706  -14.9701   -0.8217 H   0  0
   43.3704  -13.9615    1.9582 H   0  0
   41.8997  -13.2318    2.5656 H   0  0
   27.4052  -11.6781    0.1618 H   0  0
   26.7895  -14.0352   -0.3144 H   0  0
   28.5694  -15.7016   -0.7935 H   0  0
   30.9383  -15.0266   -0.7990 H   0  0
   29.7698  -10.9853    0.1629 H   0  0
   35.6130  -13.8690   -0.1578 H   0  0
   35.7120  -12.9199   -1.6744 H   0  0
   37.7582  -13.9878   -1.3979 H   0  0
   40.1425  -14.3911   -1.2642 H   0  0
   40.5225  -11.2551    1.6855 H   0  0
   38.1424  -10.7904    1.4713 H   0  0
   42.1135  -11.2565   -1.6764 H   0  0
   43.0650   -9.0364   -1.7624 H   0  0
   44.6914   -9.5623    2.1956 H   0  0
   43.6817  -11.7743    2.3198 H   0  0
   45.3663   -8.1824   -1.6244 H   0  0
   44.7046   -5.8808   -2.4269 H   0  0
   44.0829   -5.4840   -0.8143 H   0  0
   43.2628   -6.6957   -1.7863 H   0  0
   45.8887   -7.1911    1.2814 H   0  0
   41.8569  -15.6272    2.8824 H   0  0
   42.0937  -15.9442    1.1667 H   0  0
   40.5836  -15.2018    1.7398 H   0  0
   44.4808  -14.8858   -1.5765 H   0  0
   44.4337  -14.8603    0.1846 H   0  0
   44.7729  -13.3705   -0.7220 H   0  0
   33.4264   -9.0408    0.0453 H   0  0
   34.9175   -9.5983   -0.7265 H   0  0
   34.7006   -9.7858    1.0252 H   0  0
  1 36  1  0
  1 38  1  0
  1 39  1  0
  2  1  1  0
  2 23  1  0
  3  2  1  0
  3 35  1  0
  3 40  1  0
  3 41  1  0
  4  5  2  0
  4 42  1  0
  5  6  1  0
  5 43  1  0
  6  7  2  0
  6 44  1  0
  7  8  1  0
  7 45  1  0
  8  9  2  0
  8 10  1  0
  9  4  1  0
  9 46  1  0
 10 11  2  0
 11 12  1  0
 12 13  2  0
 12 15  1  0
 13 14  1  0
 13 37  1  0
 14 10  1  0
 15 16  1  0
 15 47  1  0
 15 48  1  0
 16 17  1  0
 17 18  2  0
 18 19  1  0
 18 49  1  0
 19 20  2  0
 19 50  1  0
 20  2  1  0
 20 21  1  0
 21 22  2  0
 21 51  1  0
 22 17  1  0
 22 52  1  0
 23 24  2  0
 24 25  1  0
 24 53  1  0
 25 26  2  0
 25 54  1  0
 26 27  1  0
 26 29  1  0
 27 28  2  0
 27 55  1  0
 28 23  1  0
 28 56  1  0
 29 30  1  0
 30 31  1  0
 30 32  1  0
 30 57  1  0
 31 58  1  0
 31 59  1  0
 31 60  1  0
 32 33  2  0
 32 34  1  0
 34 61  1  0
 35 62  1  0
 35 63  1  0
 35 64  1  0
 36 65  1  0
 36 66  1  0
 36 67  1  0
 37 68  1  0
 37 69  1  0
 37 70  1  0
M  END
> <Name>
CHEMBL4074565

> <Clean Energy>
67.147003

> <chembl_id>
CHEMBL4074565

> <chembl_pref_name>
None

> <efficacy>
0.03

> <Forcefield>
MMFF

> <ForcefieldBase>
MMFF

> <ForcefieldFFML>
<?xml version="1.0" encoding="UTF-8"?>
<!DOCTYPE ffml SYSTEM "Ffml.dtd">
<ffml version="1.0">
<forcefield name="MMFF" derivedFrom="MMFF" base="MMFF">
<atomTypes>
<atomType
name="C100"
element="C"
mass="12.011"
annotation=""/>
<atomType
name="N101"
element="N"
mass="14.007"
annotation=""/>
<atomType
name="O102"
element="O"
mass="16"
annotation=""/>
<atomType
name="H103"
element="H"
mass="1.008"
annotation=""/>
</atomTypes>
<parameters>
</parameters>
</forcefield>
</ffml>

> <Initial Potential Energy>
260.87348

> <Initial RMS Gradient>
28.33407

> <Minimization Criteria>
STEEPD> Minimization exiting with gradient tolerance ( 3.0000000) satisfied.

> <CHARMm Energy>
124.5376

> <Potential Energy>
124.5376

> <RMS Gradient>
0.09663

> <Bond Energy>
12.70508

> <Angle Energy>
19.09434

> <STRBend>
0.73714

> <Dihedral Energy>
-0.60283

> <OOPLane>
0.10331

> <Van der Waals Energy>
75.8236

> <Electrostatic Energy>
16.67696

> <Hydrogen Bond Energy>
0

> <Solvation Free Energy>
0

> <HasGasteigerCharges>
true

> <REMARK99>
REMARK  99  MacroMolecule created from Mol2 file
REMARK  99  CHEMBL4074565
REMARK  99  PROTEIN
REMARK  99  GASTEIGER
REMARK  99
REMARK  99

$$$$
CHEMBL4075090
  SciTegic05292516403D

 60 64  0  0  0  0            999 V2000
   14.6768  -17.5864    0.2447 C   0  0
   14.8157  -18.6975   -0.6072 C   0  0
   16.0706  -19.1790   -1.0231 C   0  0
   15.8444  -16.9477    0.7003 C   0  0
   17.1078  -17.4030    0.2834 C   0  0
   17.2074  -18.4988   -0.5643 C   0  0
   18.5695  -18.6414   -0.7855 N   0  0
   19.2101  -17.6100   -0.1163 C   0  0
   18.3430  -16.8964    0.5743 N   0  0
   20.6733  -17.2943   -0.1508 C   0  0
   21.0787  -16.5951   -1.4474 C   0  0
   22.5663  -16.2797   -1.4659 C   0  0
   19.1554  -19.6261   -1.6972 C   0  0
   20.3863  -20.3204   -1.1703 C   0  0
   21.5690  -20.3176   -1.9251 C   0  0
   22.7468  -20.8583   -1.4029 C   0  0
   22.7659  -21.4176   -0.1181 C   0  0
   21.5640  -21.4888    0.6011 C   0  0
   20.3849  -20.9552    0.0787 C   0  0
   24.0148  -21.9088    0.4772 C   0  0
   24.1908  -23.3007    0.6008 C   0  0
   25.3462  -23.8368    1.1674 C   0  0
   26.3551  -22.9933    1.6160 C   0  0
   26.2115  -21.6122    1.4991 C   0  0
   25.0475  -21.0594    0.9362 C   0  0
   13.3426  -17.0852    0.6313 C   0  0
   12.9964  -15.7340    0.4450 C   0  0
   11.7301  -15.2509    0.7937 C   0  0
   10.7820  -16.1132    1.3407 C   0  0
   11.1123  -17.4531    1.5379 C   0  0
   12.3762  -17.9379    1.1893 C   0  0
   24.9189  -19.5757    0.8895 C   0  0
   26.1212  -18.9697    0.8099 O   0  0
   23.8995  -18.9136    0.9048 O   0  0
    9.9482  -18.5218    2.2212 Cl  0  0
   13.9202  -19.1966   -0.9823 H   0  0
   16.1407  -20.0327   -1.6878 H   0  0
   15.8043  -16.0926    1.3666 H   0  0
   20.8938  -16.6235    0.6906 H   0  0
   21.2803  -18.1824    0.0280 H   0  0
   20.8376  -17.2166   -2.3164 H   0  0
   20.5113  -15.6632   -1.5615 H   0  0
   22.8326  -15.7649   -2.3943 H   0  0
   23.1619  -17.1959   -1.4036 H   0  0
   22.8414  -15.6322   -0.6272 H   0  0
   18.4026  -20.3894   -1.9185 H   0  0
   19.3624  -19.0858   -2.6280 H   0  0
   21.5971  -19.8512   -2.9077 H   0  0
   23.6616  -20.8099   -1.9910 H   0  0
   21.5511  -21.9266    1.5976 H   0  0
   19.4809  -20.9925    0.6829 H   0  0
   23.4161  -23.9816    0.2510 H   0  0
   25.4506  -24.9137    1.2598 H   0  0
   27.2521  -23.4061    2.0656 H   0  0
   27.0085  -20.9690    1.8670 H   0  0
   13.7278  -15.0491    0.0150 H   0  0
   11.4907  -14.2028    0.6358 H   0  0
    9.7965  -15.7381    1.6123 H   0  0
   12.6258  -18.9823    1.3665 H   0  0
   25.8848  -18.0185    0.7770 H   0  0
  1  2  2  0
  1 26  1  0
  2  3  1  0
  2 36  1  0
  3  6  2  0
  3 37  1  0
  4  1  1  0
  4 38  1  0
  5  4  2  0
  5  6  1  0
  6  7  1  0
  7  8  1  0
  7 13  1  0
  8  9  2  0
  8 10  1  0
  9  5  1  0
 10 11  1  0
 10 39  1  0
 10 40  1  0
 11 12  1  0
 11 41  1  0
 11 42  1  0
 12 43  1  0
 12 44  1  0
 12 45  1  0
 13 14  1  0
 13 46  1  0
 13 47  1  0
 14 15  2  0
 15 16  1  0
 15 48  1  0
 16 17  2  0
 16 49  1  0
 17 18  1  0
 17 20  1  0
 18 19  2  0
 18 50  1  0
 19 14  1  0
 19 51  1  0
 20 21  2  0
 21 22  1  0
 21 52  1  0
 22 23  2  0
 22 53  1  0
 23 24  1  0
 23 54  1  0
 24 25  2  0
 24 55  1  0
 25 20  1  0
 25 32  1  0
 26 27  2  0
 27 28  1  0
 27 56  1  0
 28 29  2  0
 28 57  1  0
 29 30  1  0
 29 58  1  0
 30 31  2  0
 30 35  1  0
 31 26  1  0
 31 59  1  0
 32 33  1  0
 32 34  2  0
 33 60  1  0
M  END
> <Name>
CHEMBL4075090

> <Clean Energy>
51.3866

> <chembl_id>
CHEMBL4075090

> <chembl_pref_name>
None

> <efficacy>
0.093067426

> <Forcefield>
MMFF

> <ForcefieldBase>
MMFF

> <ForcefieldFFML>
<?xml version="1.0" encoding="UTF-8"?>
<!DOCTYPE ffml SYSTEM "Ffml.dtd">
<ffml version="1.0">
<forcefield name="MMFF" derivedFrom="MMFF" base="MMFF">
<atomTypes>
<atomType
name="C100"
element="C"
mass="12.011"
annotation=""/>
<atomType
name="N101"
element="N"
mass="14.007"
annotation=""/>
<atomType
name="O102"
element="O"
mass="16"
annotation=""/>
<atomType
name="Cl103"
element="Cl"
mass="35.453"
annotation=""/>
<atomType
name="H104"
element="H"
mass="1.008"
annotation=""/>
</atomTypes>
<parameters>
</parameters>
</forcefield>
</ffml>

> <Initial Potential Energy>
283.95699

> <Initial RMS Gradient>
38.22024

> <Minimization Criteria>
CONJUG> Minimization exiting with gradient tolerance ( 0.0100000) satisfied.

> <CHARMm Energy>
81.38051

> <Potential Energy>
81.38051

> <RMS Gradient>
0.00931

> <Bond Energy>
9.50615

> <Angle Energy>
11.46739

> <STRBend>
-0.4808

> <Dihedral Energy>
11.56789

> <OOPLane>
0.07714

> <Van der Waals Energy>
69.4364

> <Electrostatic Energy>
-20.19366

> <Hydrogen Bond Energy>
0

> <Solvation Free Energy>
0

> <HasGasteigerCharges>
true

> <REMARK99>
REMARK  99  MacroMolecule created from Mol2 file
REMARK  99  CHEMBL4075090
REMARK  99  PROTEIN
REMARK  99  GASTEIGER
REMARK  99
REMARK  99

$$$$
CHEMBL2260196
  SciTegic05292516403D

 44 47  0  0  0  0            999 V2000
    2.3195    2.5191    0.4474 C   0  0
    1.8525    1.4413   -0.3065 C   0  0
    2.6601    0.3265   -0.5605 C   0  0
    3.6146    2.5117    0.9777 C   0  0
    4.4390    1.4027    0.7363 C   0  0
    3.9526    0.3379   -0.0219 C   0  0
    5.0074   -0.5432   -0.0713 N   0  0
    6.0472    0.0088    0.6319 C   0  0
    5.7363    1.1837    1.1317 N   0  0
    5.1069   -1.7499   -0.8787 C   0  0
    4.1218   -2.8326   -0.5091 C   0  0
    3.2310   -3.3214   -1.4762 C   0  0
    2.3748   -4.3885   -1.1881 C   0  0
    2.4007   -5.0145    0.0660 C   0  0
    3.2720   -4.5072    1.0417 C   0  0
    4.1236   -3.4297    0.7588 C   0  0
    1.5396   -6.1790    0.3367 C   0  0
    0.2884   -5.9488    0.9421 C   0  0
   -0.5922   -6.9975    1.2191 C   0  0
   -0.2449   -8.3047    0.8945 C   0  0
    0.9896   -8.5640    0.2982 C   0  0
    1.8925   -7.5143    0.0199 C   0  0
    3.2081   -7.8346   -0.6183 C   0  0
    3.5475   -9.1303   -0.3633 O   0  0
    3.8910   -7.0483   -1.2537 O   0  0
    4.8431   -9.4777   -0.8523 C   0  0
    1.6744    3.3761    0.6248 H   0  0
    0.8419    1.4682   -0.7083 H   0  0
    2.2865   -0.5045   -1.1475 H   0  0
    3.9883    3.3469    1.5595 H   0  0
    7.0106   -0.4747    0.7326 H   0  0
    4.9766   -1.4313   -1.9202 H   0  0
    6.1260   -2.1446   -0.7876 H   0  0
    3.2096   -2.8940   -2.4766 H   0  0
    1.7136   -4.7614   -1.9678 H   0  0
    3.3103   -4.9656    2.0279 H   0  0
    4.8034   -3.0800    1.5333 H   0  0
   -0.0080   -4.9323    1.1997 H   0  0
   -1.5497   -6.7846    1.6876 H   0  0
   -0.9321   -9.1206    1.1048 H   0  0
    1.2391   -9.5930    0.0482 H   0  0
    5.6114   -8.8457   -0.3955 H   0  0
    4.8743   -9.4023   -1.9438 H   0  0
    5.0418  -10.5162   -0.5731 H   0  0
  1  2  2  0
  1 27  1  0
  2  3  1  0
  2 28  1  0
  3  6  2  0
  3 29  1  0
  4  1  1  0
  4 30  1  0
  5  4  2  0
  5  6  1  0
  6  7  1  0
  7  8  1  0
  7 10  1  0
  8  9  2  0
  8 31  1  0
  9  5  1  0
 10 11  1  0
 10 32  1  0
 10 33  1  0
 11 12  2  0
 12 13  1  0
 12 34  1  0
 13 14  2  0
 13 35  1  0
 14 15  1  0
 14 17  1  0
 15 16  2  0
 15 36  1  0
 16 11  1  0
 16 37  1  0
 17 18  2  0
 18 19  1  0
 18 38  1  0
 19 20  2  0
 19 39  1  0
 20 21  1  0
 20 40  1  0
 21 22  2  0
 21 41  1  0
 22 17  1  0
 22 23  1  0
 23 24  1  0
 23 25  2  0
 24 26  1  0
 26 42  1  0
 26 43  1  0
 26 44  1  0
M  END
> <Name>
CHEMBL2260196

> <Clean Energy>
55.7822

> <chembl_id>
CHEMBL2260196

> <chembl_pref_name>
None

> <efficacy>
0.018

> <Forcefield>
MMFF

> <ForcefieldBase>
MMFF

> <ForcefieldFFML>
<?xml version="1.0" encoding="UTF-8"?>
<!DOCTYPE ffml SYSTEM "Ffml.dtd">
<ffml version="1.0">
<forcefield name="MMFF" derivedFrom="MMFF" base="MMFF">
<atomTypes>
<atomType
name="C100"
element="C"
mass="12.011"
annotation=""/>
<atomType
name="N101"
element="N"
mass="14.007"
annotation=""/>
<atomType
name="O102"
element="O"
mass="16"
annotation=""/>
<atomType
name="H103"
element="H"
mass="1.008"
annotation=""/>
</atomTypes>
<parameters>
</parameters>
</forcefield>
</ffml>

> <Initial Potential Energy>
481.15989

> <Initial RMS Gradient>
166.21322

> <Minimization Criteria>
CONJUG> Minimization exiting with gradient tolerance ( 0.0100000) satisfied.

> <CHARMm Energy>
84.21141

> <Potential Energy>
84.21141

> <RMS Gradient>
0.00976

> <Bond Energy>
6.74421

> <Angle Energy>
6.92472

> <STRBend>
-0.06155

> <Dihedral Energy>
10.50138

> <OOPLane>
0.10767

> <Van der Waals Energy>
53.04326

> <Electrostatic Energy>
6.95173

> <Hydrogen Bond Energy>
0

> <Solvation Free Energy>
0

> <HasGasteigerCharges>
true

> <REMARK99>
REMARK  99  MacroMolecule created from Mol2 file
REMARK  99  CHEMBL2260196
REMARK  99  PROTEIN
REMARK  99  GASTEIGER
REMARK  99
REMARK  99

$$$$
CHEMBL4751747
  SciTegic05292516403D

 38 40  0  0  0  0            999 V2000
    7.8153  -11.5789   -0.8991 C   0  0
    9.2706  -11.3196   -0.5479 C   0  0
   10.1088  -12.3531   -0.1131 C   0  0
   11.4704  -12.1061    0.1532 C   0  0
   12.0319  -10.8314   -0.0097 C   0  0
   11.1755   -9.7965   -0.4111 C   0  0
    9.8153  -10.0343   -0.6789 C   0  0
   13.4022  -10.6183    0.3000 N   0  0
   14.0000  -10.0113   -0.6203 N   0  0
   15.3498   -9.7243   -0.3030 C   0  0
   16.2412  -10.6739    0.2153 C   0  0
   17.5812  -10.3470    0.4663 C   0  0
   18.0690   -9.0583    0.1964 C   0  0
   17.1857   -8.1106   -0.3415 C   0  0
   15.8459   -8.4444   -0.5861 C   0  0
    6.8657  -11.5361    0.3054 C   0  0  1  0  0  0
    5.2470  -10.7721   -0.1350 S   0  0
    4.3069  -12.1313    0.4315 C   0  0
    5.1394  -13.1119    0.8537 N   0  0
    6.4915  -12.9288    0.7872 C   0  0
    7.2809  -13.8131    1.0930 O   0  0
    3.0881  -12.1790    0.4271 O   0  0
   19.5248   -8.7120    0.4357 C   0  0
   20.0754   -9.4027    1.4736 F   0  0
   19.7244   -7.3940    0.7221 F   0  0
   20.3080   -8.9790   -0.6464 F   0  0
    7.5305  -10.8295   -1.6500 H   0  0
    7.7521  -12.5452   -1.4176 H   0  0
    9.7190  -13.3635    0.0122 H   0  0
   12.1026  -12.9258    0.4872 H   0  0
   11.5700   -8.7891   -0.5210 H   0  0
    9.1979   -9.2005   -1.0065 H   0  0
   15.8894  -11.6822    0.4206 H   0  0
   18.2439  -11.1114    0.8711 H   0  0
   17.5399   -7.1066   -0.5764 H   0  0
   15.1725   -7.6999   -1.0061 H   0  0
    7.2790  -10.9746    1.1499 H   0  0
    4.7500  -13.9826    1.1816 H   0  0
  1  2  1  0
  1 16  1  0
  1 27  1  0
  1 28  1  0
  2  3  2  0
  3  4  1  0
  3 29  1  0
  4  5  2  0
  4 30  1  0
  5  6  1  0
  5  8  1  0
  6  7  2  0
  6 31  1  0
  7  2  1  0
  7 32  1  0
  8  9  2  0
  9 10  1  0
 10 11  2  0
 11 12  1  0
 11 33  1  0
 12 13  2  0
 12 34  1  0
 13 14  1  0
 13 23  1  0
 14 15  2  0
 14 35  1  0
 15 10  1  0
 15 36  1  0
 16 17  1  0
 16 37  1  0
 17 18  1  0
 18 19  1  0
 18 22  2  0
 19 20  1  0
 19 38  1  0
 20 16  1  0
 20 21  2  0
 23 24  1  0
 23 25  1  0
 23 26  1  0
M  END
> <Name>
CHEMBL4751747

> <Clean Energy>
34.556801

> <chembl_id>
CHEMBL4751747

> <chembl_pref_name>
None

> <efficacy>
0.313390313

> <Forcefield>
MMFF

> <ForcefieldBase>
MMFF

> <ForcefieldFFML>
<?xml version="1.0" encoding="UTF-8"?>
<!DOCTYPE ffml SYSTEM "Ffml.dtd">
<ffml version="1.0">
<forcefield name="MMFF" derivedFrom="MMFF" base="MMFF">
<atomTypes>
<atomType
name="C100"
element="C"
mass="12.011"
annotation=""/>
<atomType
name="N101"
element="N"
mass="14.007"
annotation=""/>
<atomType
name="S102"
element="S"
mass="32.066"
annotation=""/>
<atomType
name="O103"
element="O"
mass="16"
annotation=""/>
<atomType
name="F104"
element="F"
mass="18.998"
annotation=""/>
<atomType
name="H105"
element="H"
mass="1.008"
annotation=""/>
</atomTypes>
<parameters>
</parameters>
</forcefield>
</ffml>

> <Initial Potential Energy>
66.59938

> <Initial RMS Gradient>
32.1919

> <Minimization Criteria>
CONJUG> Minimization exiting with gradient tolerance ( 0.0100000) satisfied.

> <CHARMm Energy>
7.71754

> <Potential Energy>
7.71754

> <RMS Gradient>
0.00679

> <Bond Energy>
6.02463

> <Angle Energy>
5.14836

> <STRBend>
0.00315

> <Dihedral Energy>
12.02437

> <OOPLane>
0.06162

> <Van der Waals Energy>
34.76818

> <Electrostatic Energy>
-50.31277

> <Hydrogen Bond Energy>
0

> <Solvation Free Energy>
0

> <HasGasteigerCharges>
true

> <REMARK99>
REMARK  99  MacroMolecule created from Mol2 file
REMARK  99  CHEMBL4751747
REMARK  99  PROTEIN
REMARK  99  GASTEIGER
REMARK  99
REMARK  99

$$$$
CHEMBL4592882
  SciTegic05292516403D

 70 74  0  0  0  0            999 V2000
    5.3502  -10.3585    0.0778 C   0  0
    5.2240  -11.4080   -0.8331 C   0  0
    6.3500  -12.1011   -1.2713 C   0  0
    6.6078   -9.9581    0.5530 C   0  0
    7.7594  -10.6646    0.1399 C   0  0
    7.6032  -11.7168   -0.7636 C   0  0
    8.8607  -12.2493   -0.9870 N   0  0
    9.8098  -11.5722   -0.2490 C   0  0
    9.1559  -10.5700    0.4549 C   0  0
    9.7918   -9.5958    1.3852 C   0  0
   11.2587  -11.9271   -0.2628 C   0  0
    4.1379   -9.6439    0.5447 C   0  0
    4.1194   -8.4224    0.5956 O   0  0
    3.0912  -10.4649    0.9113 N   0  0
    9.1104  -13.3826   -1.8758 C   0  0
    8.7988  -14.7371   -1.2774 C   0  0
    8.2910  -14.9188    0.0186 C   0  0
    7.9549  -16.1893    0.4909 C   0  0
    8.1389  -17.3164   -0.3131 C   0  0
    8.6671  -17.1429   -1.5994 C   0  0
    8.9958  -15.8722   -2.0762 C   0  0
    7.8064  -18.6545    0.1786 C   0  0
    6.5516  -19.2099   -0.1218 C   0  0
    6.2198  -20.4987    0.3033 C   0  0
    7.1351  -21.2586    1.0330 C   0  0
    8.3757  -20.7182    1.3645 C   0  0
    8.7008  -19.4182    0.9497 C   0  0
   10.0089  -18.8610    1.3547 C   0  0
   10.1116  -18.7799    2.7005 O   0  0
   10.8813  -18.5161    0.5805 O   0  0
    1.7891   -9.9602    1.3028 C   0  0
    0.7842  -10.0089    0.1427 C   0  0
   -0.5393   -9.3509    0.5591 C   0  0
   -1.6006   -9.4830   -0.5316 C   0  0
   -1.8198  -10.8835   -0.9008 N   0  0
   -0.5848  -11.5006   -1.3844 C   0  0
    0.5164  -11.4494   -0.3256 C   0  0
    4.2484  -11.6811   -1.2274 H   0  0
    6.2481  -12.9215   -1.9749 H   0  0
    6.6869   -9.1319    1.2530 H   0  0
    9.0887   -8.8199    1.7022 H   0  0
   10.6380   -9.0980    0.9003 H   0  0
   10.1568  -10.1092    2.2806 H   0  0
   11.8145  -11.3632    0.4924 H   0  0
   11.6984  -11.7019   -1.2394 H   0  0
   11.4006  -12.9910   -0.0478 H   0  0
    3.2594  -11.4654    0.9504 H   0  0
    8.5063  -13.2222   -2.7767 H   0  0
   10.1615  -13.3481   -2.1807 H   0  0
    8.1258  -14.0742    0.6848 H   0  0
    7.5303  -16.2797    1.4882 H   0  0
    8.8506  -18.0072   -2.2347 H   0  0
    9.4205  -15.7841   -3.0756 H   0  0
    5.8244  -18.6276   -0.6910 H   0  0
    5.2491  -20.9182    0.0513 H   0  0
    6.8816  -22.2698    1.3402 H   0  0
    9.0935  -21.3137    1.9257 H   0  0
    9.2931  -19.0229    3.1755 H   0  0
    1.4461  -10.5763    2.1411 H   0  0
    1.8981   -8.9324    1.6658 H   0  0
    1.1988   -9.4461   -0.7055 H   0  0
   -0.9106   -9.8111    1.4845 H   0  0
   -0.3747   -8.2888    0.7775 H   0  0
   -2.5437   -9.0626   -0.1659 H   0  0
   -1.3118   -8.9009   -1.4152 H   0  0
   -2.5323  -10.9225   -1.6312 H   0  0
   -0.7885  -12.5466   -1.6386 H   0  0
   -0.2500  -11.0068   -2.3048 H   0  0
    1.4299  -11.8887   -0.7426 H   0  0
    0.2264  -12.0719    0.5310 H   0  0
  1  2  2  0
  1 12  1  0
  2  3  1  0
  2 38  1  0
  3  6  2  0
  3 39  1  0
  4  1  1  0
  4 40  1  0
  5  4  2  0
  5  6  1  0
  6  7  1  0
  7  8  1  0
  7 15  1  0
  8  9  2  0
  8 11  1  0
  9  5  1  0
  9 10  1  0
 10 41  1  0
 10 42  1  0
 10 43  1  0
 11 44  1  0
 11 45  1  0
 11 46  1  0
 12 13  2  0
 12 14  1  0
 14 31  1  0
 14 47  1  0
 15 16  1  0
 15 48  1  0
 15 49  1  0
 16 17  2  0
 17 18  1  0
 17 50  1  0
 18 19  2  0
 18 51  1  0
 19 20  1  0
 19 22  1  0
 20 21  2  0
 20 52  1  0
 21 16  1  0
 21 53  1  0
 22 23  2  0
 23 24  1  0
 23 54  1  0
 24 25  2  0
 24 55  1  0
 25 26  1  0
 25 56  1  0
 26 27  2  0
 26 57  1  0
 27 22  1  0
 27 28  1  0
 28 29  1  0
 28 30  2  0
 29 58  1  0
 31 32  1  0
 31 59  1  0
 31 60  1  0
 32 33  1  0
 32 37  1  0
 32 61  1  0
 33 34  1  0
 33 62  1  0
 33 63  1  0
 34 35  1  0
 34 64  1  0
 34 65  1  0
 35 36  1  0
 35 66  1  0
 36 37  1  0
 36 67  1  0
 36 68  1  0
 37 69  1  0
 37 70  1  0
M  END
> <Name>
CHEMBL4592882

> <Clean Energy>
41.245499

> <chembl_id>
CHEMBL4592882

> <chembl_pref_name>
None

> <efficacy>
0.11

> <Forcefield>
MMFF

> <ForcefieldBase>
MMFF

> <ForcefieldFFML>
<?xml version="1.0" encoding="UTF-8"?>
<!DOCTYPE ffml SYSTEM "Ffml.dtd">
<ffml version="1.0">
<forcefield name="MMFF" derivedFrom="MMFF" base="MMFF">
<atomTypes>
<atomType
name="C100"
element="C"
mass="12.011"
annotation=""/>
<atomType
name="N101"
element="N"
mass="14.007"
annotation=""/>
<atomType
name="O102"
element="O"
mass="16"
annotation=""/>
<atomType
name="H103"
element="H"
mass="1.008"
annotation=""/>
</atomTypes>
<parameters>
</parameters>
</forcefield>
</ffml>

> <Initial Potential Energy>
415.79215

> <Initial RMS Gradient>
115.68681

> <Minimization Criteria>
STEEPD> Minimization exiting with gradient tolerance ( 3.0000000) satisfied.

> <CHARMm Energy>
67.69207

> <Potential Energy>
67.69207

> <RMS Gradient>
0.06524

> <Bond Energy>
7.8617

> <Angle Energy>
9.30864

> <STRBend>
-0.06934

> <Dihedral Energy>
4.15827

> <OOPLane>
0.03048

> <Van der Waals Energy>
69.10359

> <Electrostatic Energy>
-22.70126

> <Hydrogen Bond Energy>
0

> <Solvation Free Energy>
0

> <HasGasteigerCharges>
true

> <REMARK99>
REMARK  99  MacroMolecule created from Mol2 file
REMARK  99  CHEMBL4592882
REMARK  99  PROTEIN
REMARK  99  GASTEIGER
REMARK  99
REMARK  99

$$$$
CHEMBL88917
  SciTegic05292516403D

 35 36  0  0  0  0            999 V2000
    6.2356   -1.3808    0.3083 N   0  0
    7.4922   -1.8181    0.1278 C   0  0
    5.2299   -2.2142   -0.0196 C   0  0
    3.9442   -1.7101    0.1811 N   0  0
    2.6550   -2.2737    0.2506 C   0  0
    1.5226   -1.5100   -0.1445 C   0  0
    7.8293   -3.0092   -0.3772 N   0  0
   10.9499   -2.4161    0.1020 C   0  0
    8.7987   -0.6947    0.5597 S   0  0
    5.4813   -3.4567   -0.5602 C   0  0
    0.2194   -2.0612   -0.0325 C   0  0
   11.6066   -3.4425    0.2333 O   0  0
   10.0331   -1.8827    1.1814 C   0  0
    6.8032   -3.8067   -0.7177 C   0  0
   11.1094   -1.6152   -0.9785 O   0  0
    2.4549   -3.5896    0.6885 C   0  0
    1.1759   -4.1426    0.7647 C   0  0
    1.7161   -0.0972   -0.6441 C   0  0
    0.0673   -3.3831    0.4097 C   0  0
   -1.0199   -1.2836   -0.3978 C   0  0
    3.9963   -0.7400    0.4715 H   0  0
    4.6930   -4.1219   -0.8827 H   0  0
    9.5423   -2.7166    1.6923 H   0  0
   10.6613   -1.3570    1.9074 H   0  0
    7.0810   -4.7668   -1.1443 H   0  0
   10.4958   -0.8518   -0.9488 H   0  0
    3.2924   -4.1930    1.0263 H   0  0
    1.0545   -5.1630    1.1175 H   0  0
    0.8865    0.2357   -1.2741 H   0  0
    2.6110   -0.0174   -1.2702 H   0  0
    1.8073    0.5877    0.2046 H   0  0
   -0.9244   -3.8275    0.4867 H   0  0
   -1.9300   -1.8101   -0.0907 H   0  0
   -1.0665   -1.1366   -1.4813 H   0  0
   -1.0257   -0.3126    0.1077 H   0  0
  2  1  2  0
  3  1  1  0
  4  3  1  0
  4 21  1  0
  5  4  1  0
  6  5  2  0
  7  2  1  0
  7 14  2  0
  8 13  1  0
  9  2  1  0
 10  3  2  0
 10 22  1  0
 11  6  1  0
 12  8  2  0
 13  9  1  0
 13 23  1  0
 13 24  1  0
 14 10  1  0
 14 25  1  0
 15  8  1  0
 15 26  1  0
 16  5  1  0
 16 27  1  0
 17 16  2  0
 17 28  1  0
 18  6  1  0
 18 29  1  0
 18 30  1  0
 18 31  1  0
 19 11  2  0
 19 17  1  0
 19 32  1  0
 20 11  1  0
 20 33  1  0
 20 34  1  0
 20 35  1  0
M  END
> <Name>
CHEMBL88917

> <Clean Energy>
3.16461

> <chembl_id>
CHEMBL88917

> <chembl_pref_name>
None

> <efficacy>
0.14

> <Forcefield>
MMFF

> <ForcefieldBase>
MMFF

> <ForcefieldFFML>
<?xml version="1.0" encoding="UTF-8"?>
<!DOCTYPE ffml SYSTEM "Ffml.dtd">
<ffml version="1.0">
<forcefield name="MMFF" derivedFrom="MMFF" base="MMFF">
<atomTypes>
<atomType
name="N100"
element="N"
mass="14.007"
annotation=""/>
<atomType
name="C101"
element="C"
mass="12.011"
annotation=""/>
<atomType
name="S102"
element="S"
mass="32.066"
annotation=""/>
<atomType
name="O103"
element="O"
mass="16"
annotation=""/>
<atomType
name="H104"
element="H"
mass="1.008"
annotation=""/>
</atomTypes>
<parameters>
</parameters>
</forcefield>
</ffml>

> <Initial Potential Energy>
33.53857

> <Initial RMS Gradient>
40.10951

> <Minimization Criteria>
CONJUG> Minimization exiting with gradient tolerance ( 0.0100000) satisfied.

> <CHARMm Energy>
-58.77737

> <Potential Energy>
-58.77737

> <RMS Gradient>
0.00915

> <Bond Energy>
3.32738

> <Angle Energy>
11.2312

> <STRBend>
0.40676

> <Dihedral Energy>
7.55268

> <OOPLane>
0.47246

> <Van der Waals Energy>
39.02678

> <Electrostatic Energy>
-120.79463

> <Hydrogen Bond Energy>
0

> <Solvation Free Energy>
0

> <HasGasteigerCharges>
true

> <REMARK99>
REMARK  99  MacroMolecule created from Mol2 file
REMARK  99  CHEMBL88917
REMARK  99  PROTEIN
REMARK  99  GASTEIGER
REMARK  99
REMARK  99

$$$$
CHEMBL65458
  SciTegic05292516403D

 51 53  0  0  0  0            999 V2000
    2.5112   -2.2300    0.4615 N   0  0
    1.3184   -1.6667    0.3632 C   0  0
    1.0790   -0.6994    1.3071 O   0  0
    3.0948   -1.6077    1.5432 C   0  0
    2.2281   -0.6592    2.0462 C   0  0
   12.6329   -2.0487   -0.9840 C   0  0
   12.5575   -0.7967   -1.9002 C   0  0
    0.2341   -1.9397   -0.5781 C   0  0
   11.4751   -2.9068   -1.0938 O   0  0
   11.5489   -0.4190   -2.4837 O   0  0
    4.4291   -2.0204    2.0473 C   0  0
    0.3369   -3.0149   -1.4744 C   0  0
   -0.9281   -1.1523   -0.6133 C   0  0
   10.3514   -2.5979   -0.3842 C   0  0
   13.7200   -0.0976   -2.0190 O   0  0
   -1.8332   -2.5048   -2.3973 C   0  0
    7.9163   -2.2420    0.9659 C   0  0
   -0.6897   -3.2987   -2.3811 C   0  0
   -1.9574   -1.4319   -1.5184 C   0  0
   -3.2255   -2.8833   -3.6193 Br  0  0
    5.5710   -1.7751    1.0632 C   0  0
    9.3107   -1.8911   -0.9829 C   0  0
   10.1633   -3.1602    0.8756 C   0  0
    8.0969   -1.7010   -0.3058 C   0  0
    8.9592   -2.9611    1.5561 C   0  0
    6.7870   -2.1423    1.7289 O   0  0
    2.2764    0.2995    3.1630 C   0  0
   12.9424   -1.6087    0.4558 C   0  0
   13.7768   -2.9513   -1.4831 C   0  0
    4.6513   -1.5041    2.9900 H   0  0
    4.3998   -3.0867    2.3052 H   0  0
    1.2310   -3.6378   -1.4714 H   0  0
   -1.0430   -0.3093    0.0657 H   0  0
   14.4949   -0.4421   -1.5383 H   0  0
   -0.5830   -4.1367   -3.0649 H   0  0
   -2.8455   -0.8063   -1.5258 H   0  0
    5.4229   -2.3852    0.1633 H   0  0
    5.6095   -0.7147    0.7865 H   0  0
    9.4222   -1.5019   -1.9917 H   0  0
   10.9350   -3.7757    1.3258 H   0  0
    7.3146   -1.1368   -0.8031 H   0  0
    8.8199   -3.3982    2.5416 H   0  0
    3.1444    0.9586    3.0649 H   0  0
    2.3516   -0.2301    4.1175 H   0  0
    1.3784    0.9247    3.1909 H   0  0
   13.8957   -1.0732    0.5219 H   0  0
   12.9954   -2.4685    1.1317 H   0  0
   12.1716   -0.9310    0.8397 H   0  0
   14.7640   -2.4930   -1.3687 H   0  0
   13.6404   -3.1958   -2.5433 H   0  0
   13.7843   -3.9039   -0.9397 H   0  0
  2  1  2  0
  3  2  1  0
  4  1  1  0
  5  3  1  0
  5  4  2  0
  6  9  1  0
  7  6  1  0
  8  2  1  0
  9 14  1  0
 10  7  2  0
 11  4  1  0
 11 30  1  0
 11 31  1  0
 12  8  1  0
 12 32  1  0
 13  8  2  0
 13 33  1  0
 14 23  1  0
 15  7  1  0
 15 34  1  0
 16 19  2  0
 17 26  1  0
 18 12  2  0
 18 16  1  0
 18 35  1  0
 19 13  1  0
 19 36  1  0
 20 16  1  0
 21 11  1  0
 21 37  1  0
 21 38  1  0
 22 14  2  0
 22 24  1  0
 22 39  1  0
 23 25  2  0
 23 40  1  0
 24 17  2  0
 24 41  1  0
 25 17  1  0
 25 42  1  0
 26 21  1  0
 27  5  1  0
 27 43  1  0
 27 44  1  0
 27 45  1  0
 28  6  1  0
 28 46  1  0
 28 47  1  0
 28 48  1  0
 29  6  1  0
 29 49  1  0
 29 50  1  0
 29 51  1  0
M  END
> <Name>
CHEMBL65458

> <Clean Energy>
44.4137

> <chembl_id>
CHEMBL65458

> <chembl_pref_name>
None

> <efficacy>
0.24

> <Forcefield>
MMFF

> <ForcefieldBase>
MMFF

> <ForcefieldFFML>
<?xml version="1.0" encoding="UTF-8"?>
<!DOCTYPE ffml SYSTEM "Ffml.dtd">
<ffml version="1.0">
<forcefield name="MMFF" derivedFrom="MMFF" base="MMFF">
<atomTypes>
<atomType
name="N100"
element="N"
mass="14.007"
annotation=""/>
<atomType
name="C101"
element="C"
mass="12.011"
annotation=""/>
<atomType
name="O102"
element="O"
mass="16"
annotation=""/>
<atomType
name="Br103"
element="Br"
mass="79.904"
annotation=""/>
<atomType
name="H104"
element="H"
mass="1.008"
annotation=""/>
</atomTypes>
<parameters>
</parameters>
</forcefield>
</ffml>

> <Initial Potential Energy>
159.34868

> <Initial RMS Gradient>
27.67727

> <Minimization Criteria>
STEEPD> Minimization exiting with gradient tolerance ( 3.0000000) satisfied.

> <CHARMm Energy>
80.12603

> <Potential Energy>
80.12603

> <RMS Gradient>
0.08975

> <Bond Energy>
5.25826

> <Angle Energy>
18.32451

> <STRBend>
0.49256

> <Dihedral Energy>
8.34033

> <OOPLane>
0.24758

> <Van der Waals Energy>
46.63154

> <Electrostatic Energy>
0.83126

> <Hydrogen Bond Energy>
0

> <Solvation Free Energy>
0

> <HasGasteigerCharges>
true

> <REMARK99>
REMARK  99  MacroMolecule created from Mol2 file
REMARK  99  CHEMBL65458
REMARK  99  PROTEIN
REMARK  99  GASTEIGER
REMARK  99
REMARK  99

$$$$
CHEMBL4435043
  SciTegic05292516403D

 50 53  0  0  0  0            999 V2000
   11.2567   -2.9131   -1.2514 C   0  0
   11.1164   -3.8587   -0.2366 C   0  0
   12.2329   -4.3312    0.4687 C   0  0
   12.5193   -2.4134   -1.5807 C   0  0
   13.6532   -2.8553   -0.8779 C   0  0
   13.4923   -3.8057    0.1294 C   0  0
   14.7720   -4.0162    0.6060 N   0  0
   15.6270   -3.1589   -0.0655 C   0  0
   14.9735   -2.4964   -0.9982 N   0  0
   15.1339   -4.9549    1.6655 C   0  0
   16.2283   -5.9125    1.2584 C   0  0
   16.1842   -6.5886    0.0315 C   0  0
   17.2667   -7.3641   -0.3860 C   0  0
   18.4062   -7.5029    0.4201 C   0  0
   18.4083   -6.8987    1.6851 C   0  0
   17.3313   -6.1121    2.1009 C   0  0
   19.5710   -8.2572   -0.0627 C   0  0
   19.4480   -9.6537   -0.2003 C   0  0
   20.5096  -10.4324   -0.6575 C   0  0
   21.7212   -9.8328   -0.9796 C   0  0
   21.8750   -8.4543   -0.8470 C   0  0
   20.8079   -7.6582   -0.3966 C   0  0
   21.0004   -6.1837   -0.3447 C   0  0
   22.2856   -5.8360   -0.1291 O   0  0
   20.1523   -5.3204   -0.4655 O   0  0
   17.0959   -3.0353    0.2125 C   0  0
   17.6626   -1.6868   -0.2372 C   0  0
   19.1449   -1.5735    0.0844 C   0  0
   12.6135   -1.4930   -2.5523 F   0  0
   10.3849   -2.5478   -1.7903 H   0  0
   10.1222   -4.2316    0.0104 H   0  0
   12.1145   -5.0710    1.2534 H   0  0
   15.4322   -4.3406    2.5231 H   0  0
   14.2498   -5.5303    1.9549 H   0  0
   15.3355   -6.4703   -0.6402 H   0  0
   17.2335   -7.8279   -1.3702 H   0  0
   19.2698   -7.0089    2.3413 H   0  0
   17.3860   -5.6210    3.0701 H   0  0
   18.5080  -10.1427    0.0513 H   0  0
   20.3853  -11.5065   -0.7626 H   0  0
   22.5474  -10.4351   -1.3434 H   0  0
   22.8291   -8.0046   -1.1156 H   0  0
   22.2144   -4.8563   -0.1278 H   0  0
   17.2816   -3.1491    1.2865 H   0  0
   17.6247   -3.8397   -0.3108 H   0  0
   17.5210   -1.5572   -1.3171 H   0  0
   17.1233   -0.8691    0.2563 H   0  0
   19.5296   -0.6010   -0.2385 H   0  0
   19.7182   -2.3524   -0.4282 H   0  0
   19.3219   -1.6685    1.1605 H   0  0
  1  2  2  0
  1 30  1  0
  2  3  1  0
  2 31  1  0
  3  6  2  0
  3 32  1  0
  4  1  1  0
  4 29  1  0
  5  4  2  0
  5  6  1  0
  6  7  1  0
  7  8  1  0
  7 10  1  0
  8  9  2  0
  8 26  1  0
  9  5  1  0
 10 11  1  0
 10 33  1  0
 10 34  1  0
 11 12  2  0
 12 13  1  0
 12 35  1  0
 13 14  2  0
 13 36  1  0
 14 15  1  0
 14 17  1  0
 15 16  2  0
 15 37  1  0
 16 11  1  0
 16 38  1  0
 17 18  2  0
 18 19  1  0
 18 39  1  0
 19 20  2  0
 19 40  1  0
 20 21  1  0
 20 41  1  0
 21 22  2  0
 21 42  1  0
 22 17  1  0
 22 23  1  0
 23 24  1  0
 23 25  2  0
 24 43  1  0
 26 27  1  0
 26 44  1  0
 26 45  1  0
 27 28  1  0
 27 46  1  0
 27 47  1  0
 28 48  1  0
 28 49  1  0
 28 50  1  0
M  END
> <Name>
CHEMBL4435043

> <Clean Energy>
46.837299

> <chembl_id>
CHEMBL4435043

> <chembl_pref_name>
None

> <efficacy>
0.419753086

> <Forcefield>
MMFF

> <ForcefieldBase>
MMFF

> <ForcefieldFFML>
<?xml version="1.0" encoding="UTF-8"?>
<!DOCTYPE ffml SYSTEM "Ffml.dtd">
<ffml version="1.0">
<forcefield name="MMFF" derivedFrom="MMFF" base="MMFF">
<atomTypes>
<atomType
name="C100"
element="C"
mass="12.011"
annotation=""/>
<atomType
name="N101"
element="N"
mass="14.007"
annotation=""/>
<atomType
name="O102"
element="O"
mass="16"
annotation=""/>
<atomType
name="F103"
element="F"
mass="18.998"
annotation=""/>
<atomType
name="H104"
element="H"
mass="1.008"
annotation=""/>
</atomTypes>
<parameters>
</parameters>
</forcefield>
</ffml>

> <Initial Potential Energy>
257.1466

> <Initial RMS Gradient>
37.95795

> <Minimization Criteria>
STEEPD> Minimization exiting with gradient tolerance ( 3.0000000) satisfied.

> <CHARMm Energy>
83.59523

> <Potential Energy>
83.59523

> <RMS Gradient>
0.04237

> <Bond Energy>
6.89776

> <Angle Energy>
10.14139

> <STRBend>
-0.06958

> <Dihedral Energy>
6.05601

> <OOPLane>
0.05591

> <Van der Waals Energy>
53.54466

> <Electrostatic Energy>
6.96908

> <Hydrogen Bond Energy>
0

> <Solvation Free Energy>
0

> <HasGasteigerCharges>
true

> <REMARK99>
REMARK  99  MacroMolecule created from Mol2 file
REMARK  99  CHEMBL4435043
REMARK  99  PROTEIN
REMARK  99  GASTEIGER
REMARK  99
REMARK  99

$$$$
CHEMBL5090821
  SciTegic05292516403D

 57 60  0  0  0  0            999 V2000
   27.6734  -14.5736    0.4356 O   0  0
   28.1009  -13.2065    0.2244 S   0  0
   28.1878  -12.2615    1.3141 O   0  0
   31.4398   -7.8890    0.5734 F   0  0
   31.3833   -8.6870   -0.5277 C   0  0
   32.3624   -8.2449   -1.3683 F   0  0
   30.5224  -11.0494   -0.5512 C   0  0
   30.6102  -12.4058   -0.2461 C   0  0
   31.7182  -12.8937    0.4375 C   0  0
   32.7554  -12.0282    0.7841 C   0  0
   32.7095  -10.6591    0.4508 C   0  0
   31.5550  -10.1559   -0.1980 C   0  0
   30.2014   -8.3890   -1.1410 F   0  0
   33.8735   -9.7742    0.8610 C   0  0
   35.1478  -10.3613    0.4828 N   0  0
   36.0522  -10.7990    1.4272 C   0  0
   37.3098  -11.4354    0.9355 C   0  0
   35.8414  -10.7274    2.6334 O   0  0
   37.9492  -12.3370    1.7918 C   0  0
   39.1283  -12.9870    1.4188 C   0  0
   37.8697  -11.1474   -0.3197 C   0  0
   39.0666  -11.7901   -0.7131 C   0  0
   39.6698  -12.7049    0.1564 C   0  0
   40.7968  -13.1912   -0.4838 N   0  0
   40.9454  -12.5749   -1.7038 C   0  0
   39.8824  -11.7183   -1.8772 C   0  0
   41.7262  -14.1851    0.0501 C   0  0
   41.1985  -15.5889   -0.1288 C   0  0
   41.1913  -16.1977   -1.3951 C   0  0
   40.6932  -17.4926   -1.5627 C   0  0
   40.1893  -18.1920   -0.4684 C   0  0
   40.1851  -17.5893    0.7827 C   0  0
   40.6884  -16.3049    0.9633 C   0  0
   39.6964  -18.2568    1.8360 F   0  0
   29.5656  -13.3070   -0.6097 N   0  0
   27.0462  -12.5196   -1.0327 C   0  0
   29.6460  -10.6739   -1.0729 H   0  0
   31.7810  -13.9402    0.7223 H   0  0
   33.6066  -12.4282    1.3349 H   0  0
   33.8414   -8.8046    0.3593 H   0  0
   33.8224   -9.5930    1.9399 H   0  0
   35.3188  -10.5160   -0.4997 H   0  0
   37.5166  -12.5526    2.7686 H   0  0
   39.5966  -13.6827    2.1040 H   0  0
   37.4099  -10.4287   -0.9884 H   0  0
   41.7876  -12.8034   -2.3478 H   0  0
   39.7045  -11.0991   -2.7464 H   0  0
   42.6866  -14.0704   -0.4665 H   0  0
   41.8993  -13.9452    1.1054 H   0  0
   41.5763  -15.6645   -2.2630 H   0  0
   40.7131  -17.9602   -2.5445 H   0  0
   39.8149  -19.2049   -0.5814 H   0  0
   40.6636  -15.8730    1.9592 H   0  0
   29.8624  -14.2851   -0.6664 H   0  0
   27.3890  -11.5146   -1.2821 H   0  0
   26.0318  -12.4730   -0.6302 H   0  0
   27.0659  -13.1709   -1.9086 H   0  0
  2  1  2  0
  2 36  1  0
  3  2  2  0
  5  4  1  0
  5 13  1  0
  6  5  1  0
  7  8  2  0
  7 37  1  0
  8  9  1  0
  8 35  1  0
  9 10  2  0
  9 38  1  0
 10 11  1  0
 10 39  1  0
 11 12  2  0
 11 14  1  0
 12  5  1  0
 12  7  1  0
 14 15  1  0
 14 40  1  0
 14 41  1  0
 15 16  1  0
 15 42  1  0
 16 17  1  0
 16 18  2  0
 17 19  2  0
 19 20  1  0
 19 43  1  0
 20 23  2  0
 20 44  1  0
 21 17  1  0
 21 45  1  0
 22 21  2  0
 22 23  1  0
 23 24  1  0
 24 25  1  0
 24 27  1  0
 25 26  2  0
 25 46  1  0
 26 22  1  0
 26 47  1  0
 27 28  1  0
 27 48  1  0
 27 49  1  0
 28 29  2  0
 29 30  1  0
 29 50  1  0
 30 31  2  0
 30 51  1  0
 31 32  1  0
 31 52  1  0
 32 33  2  0
 32 34  1  0
 33 28  1  0
 33 53  1  0
 35  2  1  0
 35 54  1  0
 36 55  1  0
 36 56  1  0
 36 57  1  0
M  END
> <Name>
CHEMBL5090821

> <Clean Energy>
47.9006

> <chembl_id>
CHEMBL5090821

> <chembl_pref_name>
None

> <efficacy>
0.322920228

> <Forcefield>
MMFF

> <ForcefieldBase>
MMFF

> <ForcefieldFFML>
<?xml version="1.0" encoding="UTF-8"?>
<!DOCTYPE ffml SYSTEM "Ffml.dtd">
<ffml version="1.0">
<forcefield name="MMFF" derivedFrom="MMFF" base="MMFF">
<atomTypes>
<atomType
name="O100"
element="O"
mass="16"
annotation=""/>
<atomType
name="S101"
element="S"
mass="32.066"
annotation=""/>
<atomType
name="F102"
element="F"
mass="18.998"
annotation=""/>
<atomType
name="C103"
element="C"
mass="12.011"
annotation=""/>
<atomType
name="N104"
element="N"
mass="14.007"
annotation=""/>
<atomType
name="H105"
element="H"
mass="1.008"
annotation=""/>
</atomTypes>
<parameters>
</parameters>
</forcefield>
</ffml>

> <Initial Potential Energy>
419.46834

> <Initial RMS Gradient>
207.38542

> <Minimization Criteria>
STEEPD> Minimization exiting with gradient tolerance ( 3.0000000) satisfied.

> <CHARMm Energy>
5.49069

> <Potential Energy>
5.49069

> <RMS Gradient>
0.06278

> <Bond Energy>
7.179

> <Angle Energy>
8.63881

> <STRBend>
0.1642

> <Dihedral Energy>
11.34096

> <OOPLane>
0.08652

> <Van der Waals Energy>
56.80344

> <Electrostatic Energy>
-78.72224

> <Hydrogen Bond Energy>
0

> <Solvation Free Energy>
0

> <HasGasteigerCharges>
true

> <REMARK99>
REMARK  99  MacroMolecule created from Mol2 file
REMARK  99  CHEMBL5090821
REMARK  99  PROTEIN
REMARK  99  GASTEIGER
REMARK  99
REMARK  99

$$$$
CHEMBL3397561
  SciTegic05292516403D

 46 48  0  0  0  0            999 V2000
    1.5023   -3.4772    1.2738 C   0  0
    2.1632   -3.2483   -0.0983 C   0  0  1  0  0  0
    2.5783   -1.7687   -0.2282 C   0  0
    2.0509   -3.9803    2.2443 O   0  0
    0.2043   -3.0894    1.3345 O   0  0
    1.4306   -0.8005   -0.3879 C   0  0
    0.9992   -0.0368    0.7060 C   0  0
   -0.0871    0.8246    0.5770 C   0  0
   -0.7442    0.9368   -0.6467 C   0  0
   -0.3175    0.1923   -1.7447 C   0  0
    0.7647   -0.6775   -1.6158 C   0  0
    3.3751   -3.9905   -0.2851 O   0  0
    3.3412   -5.3544   -0.2264 C   0  0
    4.5675   -5.9483    0.0736 C   0  0
    4.6804   -7.3364    0.1886 C   0  0
    3.5671   -8.1627   -0.0091 C   0  0
    2.3438   -7.5647   -0.3439 C   0  0
    2.2309   -6.1664   -0.4500 C   0  0
    3.7360   -9.6513    0.1385 C   0  0
    2.5317  -10.5256    0.0929 C   0  0
    2.3411  -11.3706   -1.0058 C   0  0
    1.2604  -12.2526   -1.0198 C   0  0
    0.3733  -12.2847    0.0583 C   0  0
    0.5615  -11.4325    1.1498 C   0  0
    1.6454  -10.5524    1.1731 C   0  0
    4.9415  -10.1307    0.3048 N   0  0
    4.9468  -11.5202    0.4714 O   0  0
    1.4569   -3.5168   -0.8929 H   0  0
    3.1917   -1.4798    0.6365 H   0  0
    3.2479   -1.6495   -1.0914 H   0  0
   -0.1187   -2.5375    0.5908 H   0  0
    1.5012   -0.1275    1.6688 H   0  0
   -0.4188    1.4202    1.4255 H   0  0
   -1.5842    1.6203   -0.7482 H   0  0
   -0.8264    0.3060   -2.7002 H   0  0
    1.0894   -1.2613   -2.4763 H   0  0
    5.4430   -5.3260    0.2437 H   0  0
    5.6480   -7.7632    0.4440 H   0  0
    1.4579   -8.1664   -0.5289 H   0  0
    1.2633   -5.7529   -0.7118 H   0  0
    3.0507  -11.3577   -1.8286 H   0  0
    1.1222  -12.9326   -1.8573 H   0  0
   -0.4549  -12.9916    0.0547 H   0  0
   -0.1264  -11.4670    1.9910 H   0  0
    1.8069   -9.9073    2.0331 H   0  0
    5.8896  -11.7165    0.6259 H   0  0
  1  2  1  0
  1  4  2  0
  1  5  1  0
  2  3  1  0
  2 12  1  0
  2 28  1  0
  3  6  1  0
  3 29  1  0
  3 30  1  0
  5 31  1  0
  6  7  1  0
  6 11  2  0
  7  8  2  0
  7 32  1  0
  8  9  1  0
  8 33  1  0
  9 10  2  0
  9 34  1  0
 10 11  1  0
 10 35  1  0
 11 36  1  0
 12 13  1  0
 13 14  1  0
 13 18  2  0
 14 15  2  0
 14 37  1  0
 15 16  1  0
 15 38  1  0
 16 17  2  0
 16 19  1  0
 17 18  1  0
 17 39  1  0
 18 40  1  0
 19 20  1  0
 19 26  2  0
 20 21  1  0
 20 25  2  0
 21 22  2  0
 21 41  1  0
 22 23  1  0
 22 42  1  0
 23 24  2  0
 23 43  1  0
 24 25  1  0
 24 44  1  0
 25 45  1  0
 26 27  1  0
 27 46  1  0
M  END
> <Name>
CHEMBL3397561

> <Clean Energy>
22.5417

> <chembl_id>
CHEMBL3397561

> <chembl_pref_name>
None

> <efficacy>
0.27

> <Forcefield>
MMFF

> <ForcefieldBase>
MMFF

> <ForcefieldFFML>
<?xml version="1.0" encoding="UTF-8"?>
<!DOCTYPE ffml SYSTEM "Ffml.dtd">
<ffml version="1.0">
<forcefield name="MMFF" derivedFrom="MMFF" base="MMFF">
<atomTypes>
<atomType
name="C100"
element="C"
mass="12.011"
annotation=""/>
<atomType
name="O101"
element="O"
mass="16"
annotation=""/>
<atomType
name="N102"
element="N"
mass="14.007"
annotation=""/>
<atomType
name="H103"
element="H"
mass="1.008"
annotation=""/>
</atomTypes>
<parameters>
</parameters>
</forcefield>
</ffml>

> <Initial Potential Energy>
251.91936

> <Initial RMS Gradient>
40.08329

> <Minimization Criteria>
CONJUG> Minimization exiting with gradient tolerance ( 0.0100000) satisfied.

> <CHARMm Energy>
116.3771

> <Potential Energy>
116.3771

> <RMS Gradient>
0.00932

> <Bond Energy>
6.54944

> <Angle Energy>
15.32508

> <STRBend>
1.05824

> <Dihedral Energy>
9.64195

> <OOPLane>
0.04525

> <Van der Waals Energy>
58.58684

> <Electrostatic Energy>
25.1703

> <Hydrogen Bond Energy>
0

> <Solvation Free Energy>
0

> <HasGasteigerCharges>
true

> <REMARK99>
REMARK  99  MacroMolecule created from Mol2 file
REMARK  99  CHEMBL3397561
REMARK  99  PROTEIN
REMARK  99  GASTEIGER
REMARK  99
REMARK  99

$$$$
CHEMBL3905419
  SciTegic05292516403D

 63 66  0  0  0  0            999 V2000
   14.3427   -9.2136    0.0968 C   0  0
   15.3495  -10.1875    0.2602 C   0  0
   16.6073   -9.8540    0.7803 C   0  0
   16.9004   -8.5319    1.1023 C   0  0
   15.9395   -7.5440    0.9109 C   0  0
   14.6732   -7.8827    0.4220 C   0  0
   12.9675   -9.5388   -0.3252 C   0  0
   12.3686   -8.8997   -1.4209 C   0  0
   11.0505   -9.1904   -1.7915 C   0  0
   10.2911  -10.1228   -1.0698 C   0  0
   10.8956  -10.7873    0.0044 C   0  0
   12.2072  -10.4862    0.3789 C   0  0
   15.1470  -11.6053   -0.1096 C   0  0
   15.2332  -12.5022    0.7169 O   0  0
   14.8984  -11.8466   -1.4298 N   0  0
    8.8658  -10.4151   -1.4806 C   0  0
    7.6289   -9.5294    0.5482 C   0  0
    7.9531  -10.5303   -0.3490 N   0  0
    7.2410  -11.6613   -0.0056 C   0  0
    6.5395  -11.2876    1.1366 C   0  0
    6.8113   -9.9884    1.4747 N   0  0
    5.6944  -12.2134    1.7694 C   0  0
    5.5766  -13.4999    1.2316 C   0  0
    6.2894  -13.8572    0.0866 C   0  0
    7.1385  -12.9465   -0.5571 C   0  0
    8.1661   -8.1318    0.4923 C   0  0
    7.1575   -7.0821    0.9717 C   0  0
    5.9666   -6.9262    0.0195 C   0  0
    5.0054   -5.8401    0.5065 C   0  0
    3.8172   -5.6809   -0.4437 C   0  0
    2.8493   -4.6069    0.0525 C   0  0
    1.6673   -4.4432   -0.8897 C   0  0
   17.3497  -10.6329    0.9334 H   0  0
   17.8723   -8.2736    1.5104 H   0  0
   16.1651   -6.5106    1.1655 H   0  0
   13.9281   -7.0942    0.3252 H   0  0
   12.9276   -8.1639   -1.9968 H   0  0
   10.6197   -8.6698   -2.6446 H   0  0
   10.3499  -11.5326    0.5818 H   0  0
   12.6311  -11.0018    1.2409 H   0  0
   14.8692  -11.1119   -2.1234 H   0  0
   14.8060  -12.8075   -1.7294 H   0  0
    8.4619   -9.6212   -2.1197 H   0  0
    8.8447  -11.3449   -2.0572 H   0  0
    5.1494  -11.9242    2.6610 H   0  0
    4.9249  -14.2251    1.7149 H   0  0
    6.1883  -14.8643   -0.3129 H   0  0
    7.6854  -13.2411   -1.4458 H   0  0
    9.0544   -8.0841    1.1339 H   0  0
    8.4854   -7.8687   -0.5211 H   0  0
    6.7995   -7.3296    1.9788 H   0  0
    7.6766   -6.1186    1.0498 H   0  0
    6.3308   -6.6710   -0.9831 H   0  0
    5.4249   -7.8756   -0.0652 H   0  0
    4.6419   -6.0952    1.5094 H   0  0
    5.5395   -4.8857    0.5890 H   0  0
    4.1799   -5.4156   -1.4444 H   0  0
    3.2881   -6.6374   -0.5349 H   0  0
    2.4796   -4.8717    1.0499 H   0  0
    3.3717   -3.6476    0.1443 H   0  0
    0.9850   -3.6753   -0.5118 H   0  0
    1.1071   -5.3791   -0.9829 H   0  0
    2.0003   -4.1408   -1.8876 H   0  0
  1  2  1  0
  1  6  2  0
  1  7  1  0
  2  3  2  0
  2 13  1  0
  3  4  1  0
  3 33  1  0
  4  5  2  0
  4 34  1  0
  5  6  1  0
  5 35  1  0
  6 36  1  0
  7  8  1  0
  7 12  2  0
  8  9  2  0
  8 37  1  0
  9 10  1  0
  9 38  1  0
 10 11  2  0
 10 16  1  0
 11 12  1  0
 11 39  1  0
 12 40  1  0
 13 14  2  0
 13 15  1  0
 15 41  1  0
 15 42  1  0
 16 18  1  0
 16 43  1  0
 16 44  1  0
 17 18  1  0
 17 21  2  0
 17 26  1  0
 18 19  1  0
 19 20  1  0
 19 25  2  0
 20 21  1  0
 20 22  2  0
 22 23  1  0
 22 45  1  0
 23 24  2  0
 23 46  1  0
 24 25  1  0
 24 47  1  0
 25 48  1  0
 26 27  1  0
 26 49  1  0
 26 50  1  0
 27 28  1  0
 27 51  1  0
 27 52  1  0
 28 29  1  0
 28 53  1  0
 28 54  1  0
 29 30  1  0
 29 55  1  0
 29 56  1  0
 30 31  1  0
 30 57  1  0
 30 58  1  0
 31 32  1  0
 31 59  1  0
 31 60  1  0
 32 61  1  0
 32 62  1  0
 32 63  1  0
M  END
> <Name>
CHEMBL3905419

> <Clean Energy>
47.4426

> <chembl_id>
CHEMBL3905419

> <chembl_pref_name>
None

> <efficacy>
0.311490978

> <Forcefield>
MMFF

> <ForcefieldBase>
MMFF

> <ForcefieldFFML>
<?xml version="1.0" encoding="UTF-8"?>
<!DOCTYPE ffml SYSTEM "Ffml.dtd">
<ffml version="1.0">
<forcefield name="MMFF" derivedFrom="MMFF" base="MMFF">
<atomTypes>
<atomType
name="C100"
element="C"
mass="12.011"
annotation=""/>
<atomType
name="O101"
element="O"
mass="16"
annotation=""/>
<atomType
name="N102"
element="N"
mass="14.007"
annotation=""/>
<atomType
name="H103"
element="H"
mass="1.008"
annotation=""/>
</atomTypes>
<parameters>
</parameters>
</forcefield>
</ffml>

> <Initial Potential Energy>
272.56335

> <Initial RMS Gradient>
49.42563

> <Minimization Criteria>
STEEPD> Minimization exiting with gradient tolerance ( 3.0000000) satisfied.

> <CHARMm Energy>
59.28254

> <Potential Energy>
59.28254

> <RMS Gradient>
0.06552

> <Bond Energy>
7.30848

> <Angle Energy>
7.20163

> <STRBend>
-0.31669

> <Dihedral Energy>
1.71177

> <OOPLane>
0.0738

> <Van der Waals Energy>
57.37958

> <Electrostatic Energy>
-14.07603

> <Hydrogen Bond Energy>
0

> <Solvation Free Energy>
0

> <HasGasteigerCharges>
true

> <REMARK99>
REMARK  99  MacroMolecule created from Mol2 file
REMARK  99  CHEMBL3905419
REMARK  99  PROTEIN
REMARK  99  GASTEIGER
REMARK  99
REMARK  99

$$$$
CHEMBL4575123
  SciTegic05292516403D

 39 41  0  0  0  0            999 V2000
   31.1579  -18.6047   -0.0626 C   0  0
   31.3350  -19.2595    1.1331 C   0  0
   32.6349  -19.4578    1.5085 C   0  0
   33.7062  -19.0614    0.8118 N   0  0
   33.4353  -18.4303   -0.3337 C   0  0
   32.2011  -18.1835   -0.7980 N   0  0
   29.8889  -18.3255   -0.5684 N   0  0
   28.6294  -18.7279   -0.1014 C   0  0
   27.7943  -17.7555    0.4678 C   0  0
   26.5299  -18.0896    0.9387 C   0  0
   26.0783  -19.4003    0.8247 C   0  0
   34.7954  -17.8473   -1.3177 S   0  0
   36.1325  -18.0807   -0.1181 C   0  0
   37.4616  -17.5375   -0.5903 C   0  0
   38.3215  -17.3410    0.4502 O   0  0
   37.8125  -17.3273   -1.7408 O   0  0
   33.0137  -20.2577    2.9788 Cl  0  0
   28.1506  -20.0469   -0.2706 C   0  0
   26.8766  -20.3878    0.2285 C   0  0
   26.2977  -21.7753    0.0738 C   0  0
   27.3414  -22.8320   -0.2734 C   0  0
   28.2385  -22.3323   -1.3956 C   0  0
   29.0129  -21.0956   -0.9431 C   0  0
   30.5070  -19.5937    1.7420 H   0  0
   29.9075  -17.8122   -1.4411 H   0  0
   28.1480  -16.7313    0.5636 H   0  0
   25.8883  -17.3340    1.3872 H   0  0
   25.0824  -19.6498    1.1884 H   0  0
   35.8593  -17.5465    0.7983 H   0  0
   36.2665  -19.1457    0.0962 H   0  0
   37.9269  -17.5509    1.3195 H   0  0
   25.7910  -22.0724    0.9999 H   0  0
   25.5417  -21.7397   -0.7209 H   0  0
   27.9498  -23.0631    0.6102 H   0  0
   26.8414  -23.7602   -0.5714 H   0  0
   28.9422  -23.1170   -1.6951 H   0  0
   27.6299  -22.0921   -2.2766 H   0  0
   29.5110  -20.6689   -1.8214 H   0  0
   29.7885  -21.4077   -0.2336 H   0  0
  1  2  2  0
  1  7  1  0
  2  3  1  0
  2 24  1  0
  3  4  2  0
  3 17  1  0
  4  5  1  0
  5  6  2  0
  5 12  1  0
  6  1  1  0
  7  8  1  0
  7 25  1  0
  8  9  2  0
  9 10  1  0
  9 26  1  0
 10 11  2  0
 10 27  1  0
 11 19  1  0
 11 28  1  0
 12 13  1  0
 13 14  1  0
 13 29  1  0
 13 30  1  0
 14 15  1  0
 14 16  2  0
 15 31  1  0
 18  8  1  0
 18 19  2  0
 18 23  1  0
 19 20  1  0
 20 21  1  0
 20 32  1  0
 20 33  1  0
 21 22  1  0
 21 34  1  0
 21 35  1  0
 22 23  1  0
 22 36  1  0
 22 37  1  0
 23 38  1  0
 23 39  1  0
M  END
> <Name>
CHEMBL4575123

> <Clean Energy>
22.5811

> <chembl_id>
CHEMBL4575123

> <chembl_pref_name>
None

> <efficacy>
0.14

> <Forcefield>
MMFF

> <ForcefieldBase>
MMFF

> <ForcefieldFFML>
<?xml version="1.0" encoding="UTF-8"?>
<!DOCTYPE ffml SYSTEM "Ffml.dtd">
<ffml version="1.0">
<forcefield name="MMFF" derivedFrom="MMFF" base="MMFF">
<atomTypes>
<atomType
name="C100"
element="C"
mass="12.011"
annotation=""/>
<atomType
name="N101"
element="N"
mass="14.007"
annotation=""/>
<atomType
name="S102"
element="S"
mass="32.066"
annotation=""/>
<atomType
name="O103"
element="O"
mass="16"
annotation=""/>
<atomType
name="Cl104"
element="Cl"
mass="35.453"
annotation=""/>
<atomType
name="H105"
element="H"
mass="1.008"
annotation=""/>
</atomTypes>
<parameters>
</parameters>
</forcefield>
</ffml>

> <Initial Potential Energy>
45.37455

> <Initial RMS Gradient>
47.81286

> <Minimization Criteria>
CONJUG> Minimization exiting with gradient tolerance ( 0.0100000) satisfied.

> <CHARMm Energy>
-82.07049

> <Potential Energy>
-82.07049

> <RMS Gradient>
0.00974

> <Bond Energy>
3.05589

> <Angle Energy>
9.15488

> <STRBend>
-0.02223

> <Dihedral Energy>
6.28064

> <OOPLane>
0.17109

> <Van der Waals Energy>
41.45525

> <Electrostatic Energy>
-142.16599

> <Hydrogen Bond Energy>
0

> <Solvation Free Energy>
0

> <HasGasteigerCharges>
true

> <REMARK99>
REMARK  99  MacroMolecule created from Mol2 file
REMARK  99  CHEMBL4575123
REMARK  99  PROTEIN
REMARK  99  GASTEIGER
REMARK  99
REMARK  99

$$$$
CHEMBL3398457
  SciTegic05292516403D

 72 76  0  0  0  0            999 V2000
    8.6937   -1.4351   -0.8755 C   0  0
   10.0461   -1.6477   -1.1315 C   0  0
    1.7856   -0.4554    0.8817 C   0  0
    1.8738    0.9262    0.6310 C   0  0
    7.9153   -2.5061   -0.4218 C   0  0
    0.6171   -1.0137    1.4024 C   0  0
    3.1169    1.4681    0.0877 C   0  0
    5.0886    1.8146   -0.6455 C   0  0
    8.4636   -3.7880   -0.2266 C   0  0
   10.6075   -2.9129   -0.9445 C   0  0
    6.8626    0.0561   -0.7766 C   0  0
    9.8217   -3.9779   -0.4968 C   0  0
    6.4824    1.5079   -1.0660 C   0  0
    7.5233   -4.8795    0.2361 C   0  0
    4.2210    0.8172   -0.2417 N   0  0
   -0.4064    1.1782    1.4424 C   0  0
    0.7644    1.7374    0.9208 C   0  0
    4.8341    4.4328   -0.8366 C   0  0
    4.4546    3.0366   -0.5616 C   0  0
    8.2375   -0.1591   -1.1083 O   0  0
   -0.4785   -0.1955    1.6793 C   0  0
    3.1919    2.8233   -0.0871 O   0  0
    8.1267   -6.2649    0.5032 C   0  0
    7.0714   -7.2848    0.9595 C   0  0  1  0  0  0
    5.9645   -7.5035   -0.0880 C   0  0
    5.5586   -8.8817    0.0811 N   0  0
    6.3759   -9.5746    1.0518 C   0  0
    7.6284   -8.7087    1.1619 C   0  0  2  0  0  0
    4.5059   -9.4463   -0.6066 C   0  0
    3.8736   -8.8191   -1.4507 O   0  0
    4.2640  -10.7604   -0.2153 O   0  0
    8.3107   -8.9660    2.4835 C   0  0
    7.8328   -9.6038    3.4099 O   0  0
    9.5782   -8.5026    2.5337 O   0  0
    3.0616  -11.3437   -0.6396 C   0  0
    3.1339  -12.6230   -1.1856 C   0  0
    1.9586  -13.2810   -1.5476 C   0  0
    0.7222  -12.6622   -1.3506 C   0  0
    0.6582  -11.3866   -0.7870 C   0  0
    1.8302  -10.7256   -0.4210 C   0  0
   10.6657   -0.8259   -1.4777 H   0  0
    2.6346   -1.1084    0.6735 H   0  0
    6.8564   -2.3789   -0.2138 H   0  0
    0.5606   -2.0844    1.5902 H   0  0
   11.6615   -3.0701   -1.1533 H   0  0
    6.2259   -0.6013   -1.3829 H   0  0
    6.7063   -0.1499    0.2907 H   0  0
   10.2893   -4.9492   -0.3713 H   0  0
    6.6025    1.7120   -2.1368 H   0  0
    7.1822    2.1753   -0.5480 H   0  0
    7.0361   -4.5350    1.1576 H   0  0
    6.7425   -4.9714   -0.5289 H   0  0
   -1.2602    1.8142    1.6618 H   0  0
    0.8049    2.8098    0.7412 H   0  0
    4.0415    4.9487   -1.3872 H   0  0
    5.7484    4.4813   -1.4356 H   0  0
    5.0096    4.9706    0.1000 H   0  0
   -1.3876   -0.6346    2.0808 H   0  0
    8.6246   -6.6358   -0.4015 H   0  0
    8.8952   -6.1700    1.2779 H   0  0
    6.6200   -6.9374    1.8990 H   0  0
    5.1072   -6.8386    0.0585 H   0  0
    6.3280   -7.3872   -1.1154 H   0  0
    5.7995   -9.6317    1.9823 H   0  0
    6.6015  -10.5934    0.7202 H   0  0
    8.3136   -8.9828    0.3486 H   0  0
    9.8747   -8.0138    1.7432 H   0  0
    4.0972  -13.1043   -1.3250 H   0  0
    2.0029  -14.2793   -1.9763 H   0  0
   -0.1920  -13.1806   -1.6315 H   0  0
   -0.3036  -10.9064   -0.6287 H   0  0
    1.7765   -9.7349    0.0234 H   0  0
  1  5  2  0
  2  1  1  0
  2 41  1  0
  3  6  1  0
  3 42  1  0
  4  3  2  0
  5  9  1  0
  5 43  1  0
  6 21  2  0
  6 44  1  0
  7  4  1  0
  7 15  2  0
  8 13  1  0
  8 19  2  0
  9 12  2  0
 10  2  2  0
 10 45  1  0
 11 20  1  0
 11 46  1  0
 11 47  1  0
 12 10  1  0
 12 48  1  0
 13 11  1  0
 13 49  1  0
 13 50  1  0
 14  9  1  0
 14 23  1  0
 14 51  1  0
 14 52  1  0
 15  8  1  0
 16 17  2  0
 16 53  1  0
 17  4  1  0
 17 54  1  0
 18 55  1  0
 18 56  1  0
 18 57  1  0
 19 18  1  0
 19 22  1  0
 20  1  1  0
 21 16  1  0
 21 58  1  0
 22  7  1  0
 23 59  1  0
 23 60  1  0
 24 23  1  0
 24 25  1  0
 24 61  1  0
 25 26  1  0
 25 62  1  0
 25 63  1  0
 26 27  1  0
 26 29  1  0
 27 28  1  0
 27 64  1  0
 27 65  1  0
 28 24  1  0
 28 32  1  0
 28 66  1  0
 29 30  2  0
 29 31  1  0
 31 35  1  0
 32 33  2  0
 32 34  1  0
 34 67  1  0
 35 36  2  0
 36 37  1  0
 36 68  1  0
 37 38  2  0
 37 69  1  0
 38 39  1  0
 38 70  1  0
 39 40  2  0
 39 71  1  0
 40 35  1  0
 40 72  1  0
M  END
> <Name>
CHEMBL3398457

> <Clean Energy>
50.896099

> <chembl_id>
CHEMBL3398457

> <chembl_pref_name>
None

> <efficacy>
0.45

> <Forcefield>
MMFF

> <ForcefieldBase>
MMFF

> <ForcefieldFFML>
<?xml version="1.0" encoding="UTF-8"?>
<!DOCTYPE ffml SYSTEM "Ffml.dtd">
<ffml version="1.0">
<forcefield name="MMFF" derivedFrom="MMFF" base="MMFF">
<atomTypes>
<atomType
name="C100"
element="C"
mass="12.011"
annotation=""/>
<atomType
name="N101"
element="N"
mass="14.007"
annotation=""/>
<atomType
name="O102"
element="O"
mass="16"
annotation=""/>
<atomType
name="H103"
element="H"
mass="1.008"
annotation=""/>
</atomTypes>
<parameters>
</parameters>
</forcefield>
</ffml>

> <Initial Potential Energy>
124.0754

> <Initial RMS Gradient>
27.58526

> <Minimization Criteria>
STEEPD> Minimization exiting with gradient tolerance ( 3.0000000) satisfied.

> <CHARMm Energy>
29.02861

> <Potential Energy>
29.02861

> <RMS Gradient>
0.09897

> <Bond Energy>
7.25221

> <Angle Energy>
23.62469

> <STRBend>
-0.51535

> <Dihedral Energy>
0.96177

> <OOPLane>
0.24666

> <Van der Waals Energy>
70.11634

> <Electrostatic Energy>
-72.65771

> <Hydrogen Bond Energy>
0

> <Solvation Free Energy>
0

> <HasGasteigerCharges>
true

> <REMARK99>
REMARK  99  MacroMolecule created from Mol2 file
REMARK  99  CHEMBL3398457
REMARK  99  PROTEIN
REMARK  99  GASTEIGER
REMARK  99
REMARK  99

$$$$
CHEMBL4755265
  SciTegic05292516403D

 57 60  0  0  0  0            999 V2000
   11.0044   -7.4396   -0.1239 C   0  0
   12.4336   -6.9562    0.0521 C   0  0
   13.4919   -7.5710   -0.6317 C   0  0
   14.8132   -7.1350   -0.4495 C   0  0
   15.1150   -6.0790    0.4201 C   0  0
   14.0551   -5.4709    1.1010 C   0  0
   12.7308   -5.8959    0.9177 C   0  0
   16.4412   -5.6828    0.7052 N   0  0
   17.0662   -5.3583   -0.3304 N   0  0
   18.4125   -5.0487   -0.0252 C   0  0
   19.3055   -6.0347    0.4246 C   0  0
   20.6452   -5.7267    0.6738 C   0  0
   21.1080   -4.4284    0.4670 C   0  0
   20.2392   -3.4369    0.0133 C   0  0
   18.8984   -3.7496   -0.2357 C   0  0
   10.1228   -6.5146   -0.9865 C   0  0  2  0  0  0
    8.6975   -6.7987   -0.7348 N   0  0
   10.4118   -6.7705   -2.4836 C   0  0
   11.6075   -6.2924   -2.9158 O   0  0
    9.6334   -7.3476   -3.2366 O   0  0
    7.9178   -6.2983    0.2917 C   0  0
    8.4246   -5.4409    1.2776 C   0  0
    7.6152   -4.9438    2.3094 C   0  0
    6.2710   -5.2981    2.3871 C   0  0
    5.7390   -6.1666    1.4426 C   0  0
    6.5645   -6.6746    0.4275 C   0  0
    5.9408   -7.6232   -0.5122 C   0  0
    6.2627   -9.0777   -0.4610 C   0  0
    5.1233   -7.1872   -1.3175 O   0  0
    5.7507   -9.9052   -1.4689 C   0  0
    6.0110  -11.2766   -1.4545 C   0  0
    6.7753  -11.8327   -0.4307 C   0  0
    7.2843  -11.0169    0.5785 C   0  0
    7.0268   -9.6430    0.5678 C   0  0
   22.7552   -4.0500    0.7640 Cl  0  0
   11.0124   -8.4527   -0.5485 H   0  0
   10.5760   -7.5538    0.8807 H   0  0
   13.3081   -8.4072   -1.3055 H   0  0
   15.6190   -7.6415   -0.9762 H   0  0
   14.2663   -4.6662    1.8018 H   0  0
   11.9451   -5.4055    1.4878 H   0  0
   18.9480   -7.0502    0.5763 H   0  0
   21.3292   -6.4986    1.0217 H   0  0
   20.6142   -2.4268   -0.1508 H   0  0
   18.2236   -2.9783   -0.5985 H   0  0
   10.3177   -5.4502   -0.8105 H   0  0
    8.2165   -7.2357   -1.5283 H   0  0
   12.1524   -5.8354   -2.2432 H   0  0
    9.4608   -5.1203    1.2598 H   0  0
    8.0333   -4.2659    3.0500 H   0  0
    5.6439   -4.8985    3.1796 H   0  0
    4.6900   -6.4511    1.4904 H   0  0
    5.1382   -9.4876   -2.2673 H   0  0
    5.6078  -11.9107   -2.2405 H   0  0
    6.9678  -12.9031   -0.4197 H   0  0
    7.8871  -11.4472    1.3746 H   0  0
    7.4308   -9.0343    1.3716 H   0  0
  1  2  1  0
  1 16  1  0
  1 36  1  0
  1 37  1  0
  2  3  2  0
  3  4  1  0
  3 38  1  0
  4  5  2  0
  4 39  1  0
  5  6  1  0
  5  8  1  0
  6  7  2  0
  6 40  1  0
  7  2  1  0
  7 41  1  0
  8  9  2  0
  9 10  1  0
 10 11  2  0
 11 12  1  0
 11 42  1  0
 12 13  2  0
 12 43  1  0
 13 14  1  0
 13 35  1  0
 14 15  2  0
 14 44  1  0
 15 10  1  0
 15 45  1  0
 16 17  1  0
 16 18  1  0
 16 46  1  0
 17 21  1  0
 17 47  1  0
 18 19  1  0
 18 20  2  0
 19 48  1  0
 21 22  2  0
 22 23  1  0
 22 49  1  0
 23 24  2  0
 23 50  1  0
 24 25  1  0
 24 51  1  0
 25 26  2  0
 25 52  1  0
 26 21  1  0
 26 27  1  0
 27 28  1  0
 27 29  2  0
 28 30  2  0
 30 31  1  0
 30 53  1  0
 31 32  2  0
 31 54  1  0
 32 33  1  0
 32 55  1  0
 33 34  2  0
 33 56  1  0
 34 28  1  0
 34 57  1  0
M  END
> <Name>
CHEMBL4755265

> <Clean Energy>
31.693701

> <chembl_id>
CHEMBL4755265

> <chembl_pref_name>
None

> <efficacy>
0.189933523

> <Forcefield>
MMFF

> <ForcefieldBase>
MMFF

> <ForcefieldFFML>
<?xml version="1.0" encoding="UTF-8"?>
<!DOCTYPE ffml SYSTEM "Ffml.dtd">
<ffml version="1.0">
<forcefield name="MMFF" derivedFrom="MMFF" base="MMFF">
<atomTypes>
<atomType
name="C100"
element="C"
mass="12.011"
annotation=""/>
<atomType
name="N101"
element="N"
mass="14.007"
annotation=""/>
<atomType
name="O102"
element="O"
mass="16"
annotation=""/>
<atomType
name="Cl103"
element="Cl"
mass="35.453"
annotation=""/>
<atomType
name="H104"
element="H"
mass="1.008"
annotation=""/>
</atomTypes>
<parameters>
</parameters>
</forcefield>
</ffml>

> <Initial Potential Energy>
347.25947

> <Initial RMS Gradient>
53.59385

> <Minimization Criteria>
CONJUG> Minimization exiting with gradient tolerance ( 0.0100000) satisfied.

> <CHARMm Energy>
158.34933

> <Potential Energy>
158.34933

> <RMS Gradient>
0.00963

> <Bond Energy>
8.92092

> <Angle Energy>
13.59304

> <STRBend>
0.68253

> <Dihedral Energy>
18.12302

> <OOPLane>
0.41475

> <Van der Waals Energy>
70.30663

> <Electrostatic Energy>
46.30845

> <Hydrogen Bond Energy>
0

> <Solvation Free Energy>
0

> <HasGasteigerCharges>
true

> <REMARK99>
REMARK  99  MacroMolecule created from Mol2 file
REMARK  99  CHEMBL4755265
REMARK  99  PROTEIN
REMARK  99  GASTEIGER
REMARK  99
REMARK  99

$$$$
CHEMBL5089975
  SciTegic05292516403D

 49 52  0  0  0  0            999 V2000
   31.1361   -6.6765   -2.5434 F   0  0
   30.2380   -6.5086   -1.5272 C   0  0
   30.7459   -5.4960   -0.7692 F   0  0
   28.8192   -8.4232   -0.7244 C   0  0
   28.6110   -9.5913    0.0039 C   0  0
   29.6616  -10.1427    0.7356 C   0  0
   30.9176   -9.5290    0.7464 C   0  0
   31.1605   -8.3539    0.0112 C   0  0
   30.0823   -7.7886   -0.7278 C   0  0
   29.0935   -6.0385   -2.0923 F   0  0
   32.5094   -7.6539    0.1477 C   0  0
   33.6804   -8.5275    0.0851 N   0  0
   34.8607   -8.1519    0.7162 C   0  0
   36.1346   -8.9110    0.4561 C   0  0
   34.9058   -7.1906    1.4797 O   0  0
   36.2478   -9.9271   -0.5221 C   0  0
   37.4761  -10.5748   -0.7637 C   0  0
   37.2792   -8.5399    1.2054 C   0  0
   38.4725   -9.1882    0.9482 C   0  0
   38.5716  -10.1853   -0.0181 C   0  0
   39.9007  -10.6382   -0.0251 N   0  0
   40.6426   -9.9219    0.9421 C   0  0
   39.7306   -9.0230    1.5345 N   0  0
   41.8210  -10.0469    1.2342 O   0  0
   40.4432  -11.6952   -0.8469 C   0  0
   39.9639  -13.0806   -0.4616 C   0  0
   39.7846  -13.4156    0.8958 C   0  0
   39.3578  -14.6885    1.2790 C   0  0
   39.1143  -15.6585    0.3140 C   0  0
   39.3142  -15.3589   -1.0321 C   0  0
   39.7465  -14.0848   -1.4185 C   0  0
   40.0356  -13.8317   -3.1043 Cl  0  0
   27.9853   -7.9979   -1.2843 H   0  0
   27.6312  -10.0649    0.0094 H   0  0
   29.4820  -11.0437    1.3192 H   0  0
   31.7086   -9.9613    1.3587 H   0  0
   32.6611   -6.9339   -0.6610 H   0  0
   32.5090   -7.0943    1.0901 H   0  0
   33.6413   -9.3180   -0.5385 H   0  0
   35.3959  -10.2241   -1.1255 H   0  0
   37.5505  -11.3509   -1.5180 H   0  0
   37.2245   -7.7581    1.9571 H   0  0
   40.0006   -8.3932    2.2749 H   0  0
   40.1781  -11.4428   -1.8782 H   0  0
   41.5370  -11.6818   -0.7742 H   0  0
   39.9652  -12.6744    1.6728 H   0  0
   39.2146  -14.9176    2.3324 H   0  0
   38.7816  -16.6501    0.6096 H   0  0
   39.1414  -16.1292   -1.7793 H   0  0
  2  1  1  0
  2 10  1  0
  3  2  1  0
  4  5  2  0
  4 33  1  0
  5  6  1  0
  5 34  1  0
  6  7  2  0
  6 35  1  0
  7  8  1  0
  7 36  1  0
  8  9  2  0
  8 11  1  0
  9  2  1  0
  9  4  1  0
 11 12  1  0
 11 37  1  0
 11 38  1  0
 12 13  1  0
 12 39  1  0
 13 14  1  0
 13 15  2  0
 14 16  2  0
 16 17  1  0
 16 40  1  0
 17 20  2  0
 17 41  1  0
 18 14  1  0
 18 42  1  0
 19 18  2  0
 19 20  1  0
 20 21  1  0
 21 22  1  0
 21 25  1  0
 22 23  1  0
 22 24  2  0
 23 19  1  0
 23 43  1  0
 25 26  1  0
 25 44  1  0
 25 45  1  0
 26 27  2  0
 27 28  1  0
 27 46  1  0
 28 29  2  0
 28 47  1  0
 29 30  1  0
 29 48  1  0
 30 31  2  0
 30 49  1  0
 31 26  1  0
 31 32  1  0
M  END
> <Name>
CHEMBL5089975

> <Clean Energy>
47.034

> <chembl_id>
CHEMBL5089975

> <chembl_pref_name>
None

> <efficacy>
0.254510921

> <Forcefield>
MMFF

> <ForcefieldBase>
MMFF

> <ForcefieldFFML>
<?xml version="1.0" encoding="UTF-8"?>
<!DOCTYPE ffml SYSTEM "Ffml.dtd">
<ffml version="1.0">
<forcefield name="MMFF" derivedFrom="MMFF" base="MMFF">
<atomTypes>
<atomType
name="F100"
element="F"
mass="18.998"
annotation=""/>
<atomType
name="C101"
element="C"
mass="12.011"
annotation=""/>
<atomType
name="N102"
element="N"
mass="14.007"
annotation=""/>
<atomType
name="O103"
element="O"
mass="16"
annotation=""/>
<atomType
name="Cl104"
element="Cl"
mass="35.453"
annotation=""/>
<atomType
name="H105"
element="H"
mass="1.008"
annotation=""/>
</atomTypes>
<parameters>
</parameters>
</forcefield>
</ffml>

> <Initial Potential Energy>
372.7923

> <Initial RMS Gradient>
202.75133

> <Minimization Criteria>
CONJUG> Minimization exiting with gradient tolerance ( 0.0100000) satisfied.

> <CHARMm Energy>
8.84961

> <Potential Energy>
8.84961

> <RMS Gradient>
0.00983

> <Bond Energy>
9.81722

> <Angle Energy>
29.41346

> <STRBend>
-1.41129

> <Dihedral Energy>
-1.37781

> <OOPLane>
0.20361

> <Van der Waals Energy>
55.50617

> <Electrostatic Energy>
-83.30175

> <Hydrogen Bond Energy>
0

> <Solvation Free Energy>
0

> <HasGasteigerCharges>
true

> <REMARK99>
REMARK  99  MacroMolecule created from Mol2 file
REMARK  99  CHEMBL5089975
REMARK  99  PROTEIN
REMARK  99  GASTEIGER
REMARK  99
REMARK  99

$$$$
CHEMBL1945215
  SciTegic05292516403D

 66 70  0  0  0  0            999 V2000
   -6.2823  -10.3072    0.3885 C   0  0
   -6.5396  -11.2180    1.3559 C   0  0
   -5.6191  -12.2910    1.6828 C   0  0
   -5.0238  -10.5029   -0.4223 C   0  0
   -4.5740   -9.5755   -1.1011 O   0  0
   -7.2563   -9.1897    0.1496 C   0  0
   -7.0883   -8.3008   -1.0533 C   0  0
   -8.1995   -9.0191    0.9290 O   0  0
   -7.6444  -11.1982    2.1834 O   0  0
   -4.4372  -11.9139   -0.4900 C   0  0  1  0  0  0
   -4.6327  -12.6041    0.8328 C   0  0
   -3.5391  -13.4099    1.1507 O   0  0
   -5.1383  -12.6761   -1.6268 C   0  0
   -2.9454  -12.0577   -0.6180 C   0  0
   -2.5065  -13.0337    0.3069 C   0  0
   -1.2019  -13.5217    0.3134 C   0  0
   -0.3125  -12.9314   -0.6081 C   0  0
   -0.7381  -11.9516   -1.5216 C   0  0
   -2.0551  -11.5114   -1.5192 C   0  0
   -2.3945  -10.5660   -2.4302 O   0  0
    1.0045  -13.3220   -0.7015 O   0  0
    1.8244  -12.4574    0.0913 C   0  0
   -0.7732  -14.6175    1.2419 C   0  0
   -1.2949  -14.7680    2.3382 O   0  0
    0.2472  -15.4131    0.7724 N   0  0
    0.9639  -16.4047    1.5477 C   0  0
    2.3382  -16.5412    0.9389 C   0  0
    4.8532  -16.3993   -0.2808 C   0  0
    4.5912  -15.6171    0.8404 C   0  0
    3.3438  -15.6998    1.4463 C   0  0
    3.8627  -17.2370   -0.8256 C   0  0
    2.5849  -17.3200   -0.2209 C   0  0
    1.6132  -18.1491   -0.8319 C   0  0
    1.8960  -18.8785   -1.9875 C   0  0
    3.1506  -18.7823   -2.5707 C   0  0
    4.1250  -17.9694   -1.9936 C   0  0
    5.4344  -14.7083    1.4130 O   0  0
    6.7664  -14.6535    0.9047 C   0  0
    7.5438  -13.6489    1.7360 C   0  0
   -5.6777  -12.7589    2.6611 H   0  0
   -8.0044   -7.7193   -1.1987 H   0  0
   -6.9342   -8.8993   -1.9547 H   0  0
   -6.2598   -7.6068   -0.8937 H   0  0
   -8.2123  -10.4141    1.9755 H   0  0
   -4.8133  -13.7222   -1.6855 H   0  0
   -4.9266  -12.2124   -2.5979 H   0  0
   -6.2276  -12.6760   -1.5026 H   0  0
   -0.0345  -11.5377   -2.2404 H   0  0
   -3.1630  -10.0520   -2.0993 H   0  0
    2.8605  -12.7933   -0.0132 H   0  0
    1.5519  -12.5172    1.1506 H   0  0
    1.7685  -11.4213   -0.2595 H   0  0
    0.5986  -15.2077   -0.1579 H   0  0
    1.0182  -16.0795    2.5932 H   0  0
    0.4011  -17.3422    1.5403 H   0  0
    5.8242  -16.3610   -0.7682 H   0  0
    3.1260  -15.0576    2.2994 H   0  0
    0.6077  -18.2267   -0.4218 H   0  0
    1.1392  -19.5205   -2.4314 H   0  0
    3.3795  -19.3466   -3.4715 H   0  0
    5.1019  -17.9137   -2.4705 H   0  0
    7.2483  -15.6348    0.9875 H   0  0
    6.7597  -14.3237   -0.1405 H   0  0
    8.5778  -13.5720    1.3880 H   0  0
    7.5465  -13.9417    2.7913 H   0  0
    7.0775  -12.6598    1.6807 H   0  0
  1  2  2  0
  1  4  1  0
  1  6  1  0
  2  3  1  0
  2  9  1  0
  3 11  2  0
  3 40  1  0
  4  5  2  0
  6  7  1  0
  6  8  2  0
  7 41  1  0
  7 42  1  0
  7 43  1  0
  9 44  1  0
 10  4  1  0
 10 11  1  0
 10 13  1  0
 11 12  1  0
 12 15  1  0
 13 45  1  0
 13 46  1  0
 13 47  1  0
 14 10  1  0
 14 15  2  0
 15 16  1  0
 16 17  2  0
 16 23  1  0
 17 18  1  0
 17 21  1  0
 18 19  2  0
 18 48  1  0
 19 14  1  0
 19 20  1  0
 20 49  1  0
 21 22  1  0
 22 50  1  0
 22 51  1  0
 22 52  1  0
 23 24  2  0
 23 25  1  0
 25 26  1  0
 25 53  1  0
 26 27  1  0
 26 54  1  0
 26 55  1  0
 27 32  2  0
 28 29  1  0
 28 56  1  0
 29 30  2  0
 29 37  1  0
 30 27  1  0
 30 57  1  0
 31 28  2  0
 31 32  1  0
 32 33  1  0
 33 34  2  0
 33 58  1  0
 34 35  1  0
 34 59  1  0
 35 36  2  0
 35 60  1  0
 36 31  1  0
 36 61  1  0
 37 38  1  0
 38 39  1  0
 38 62  1  0
 38 63  1  0
 39 64  1  0
 39 65  1  0
 39 66  1  0
M  END
> <Name>
CHEMBL1945215

> <Clean Energy>
59.7346

> <chembl_id>
CHEMBL1945215

> <chembl_pref_name>
None

> <efficacy>
0.22

> <Forcefield>
MMFF

> <ForcefieldBase>
MMFF

> <ForcefieldFFML>
<?xml version="1.0" encoding="UTF-8"?>
<!DOCTYPE ffml SYSTEM "Ffml.dtd">
<ffml version="1.0">
<forcefield name="MMFF" derivedFrom="MMFF" base="MMFF">
<atomTypes>
<atomType
name="C100"
element="C"
mass="12.011"
annotation=""/>
<atomType
name="O101"
element="O"
mass="16"
annotation=""/>
<atomType
name="N102"
element="N"
mass="14.007"
annotation=""/>
<atomType
name="H103"
element="H"
mass="1.008"
annotation=""/>
</atomTypes>
<parameters>
</parameters>
</forcefield>
</ffml>

> <Initial Potential Energy>
159.00796

> <Initial RMS Gradient>
27.38006

> <Minimization Criteria>
STEEPD> Minimization exiting with gradient tolerance ( 3.0000000) satisfied.

> <CHARMm Energy>
56.61137

> <Potential Energy>
56.61137

> <RMS Gradient>
0.06452

> <Bond Energy>
9.724

> <Angle Energy>
32.37817

> <STRBend>
-0.14693

> <Dihedral Energy>
14.25016

> <OOPLane>
0.85657

> <Van der Waals Energy>
81.5233

> <Electrostatic Energy>
-81.97391

> <Hydrogen Bond Energy>
0

> <Solvation Free Energy>
0

> <HasGasteigerCharges>
true

> <REMARK99>
REMARK  99  MacroMolecule created from Mol2 file
REMARK  99  CHEMBL1945215
REMARK  99  PROTEIN
REMARK  99  GASTEIGER
REMARK  99
REMARK  99

$$$$
CHEMBL3397555
  SciTegic05292516403D

 44 45  0  0  0  0            999 V2000
    1.3549   -3.3571    1.5047 C   0  0
    1.9849   -3.1992    0.0940 C   0  0  1  0  0  0
    2.4835   -1.7533   -0.0761 C   0  0
    2.0573   -2.9903    2.4916 O   0  0
    0.1776   -3.8307    1.5084 O   0  5
    1.4211   -0.7169   -0.3715 C   0  0
    0.6420   -0.1877    0.6661 C   0  0
   -0.3147    0.7933    0.4049 C   0  0
   -0.5024    1.2528   -0.8973 C   0  0
    0.2618    0.7322   -1.9401 C   0  0
    1.2162   -0.2530   -1.6790 C   0  0
    3.1671   -4.0318   -0.0453 O   0  0
    3.0467   -5.3894   -0.0944 C   0  0
    4.2720   -6.0633   -0.0887 C   0  0
    4.3253   -7.4577   -0.1214 C   0  0
    3.1402   -8.1946   -0.1631 C   0  0
    1.9106   -7.5328   -0.1798 C   0  0
    1.8666   -6.1292   -0.1482 C   0  0
    3.2391   -9.6671   -0.1735 C   0  0
    2.2127  -10.4568   -0.2359 N   0  0
    2.6623  -11.7874   -0.2172 O   0  0
    1.5284  -12.6622   -0.2114 C   0  0
    1.9871  -14.0085   -0.7560 C   0  0
    0.9996  -12.8032    1.2109 C   0  0
    1.2727   -3.4389   -0.7051 H   0  0
    3.0642   -1.4247    0.7966 H   0  0
    3.2182   -1.7320   -0.8942 H   0  0
    0.7769   -0.5547    1.6842 H   0  0
   -0.9146    1.1920    1.2186 H   0  0
   -1.2485    2.0155   -1.0980 H   0  0
    0.1109    1.0936   -2.9536 H   0  0
    1.8028   -0.6651   -2.4964 H   0  0
    5.1919   -5.4858   -0.0378 H   0  0
    5.2931   -7.9490   -0.1008 H   0  0
    0.9801   -8.0943   -0.1982 H   0  0
    0.8944   -5.6434   -0.1410 H   0  0
    4.2595  -10.0881   -0.1231 H   0  0
    0.7459  -12.2644   -0.8701 H   0  0
    1.1637  -14.7288   -0.7823 H   0  0
    2.7985  -14.4239   -0.1478 H   0  0
    2.3828  -13.8940   -1.7710 H   0  0
    0.1590  -13.5025    1.2538 H   0  0
    0.6621  -11.8353    1.5963 H   0  0
    1.7855  -13.1545    1.8886 H   0  0
  1  2  1  0
  1  4  2  0
  1  5  1  0
  2  3  1  0
  2 12  1  0
  2 25  1  0
  3  6  1  0
  3 26  1  0
  3 27  1  0
  6  7  1  0
  6 11  2  0
  7  8  2  0
  7 28  1  0
  8  9  1  0
  8 29  1  0
  9 10  2  0
  9 30  1  0
 10 11  1  0
 10 31  1  0
 11 32  1  0
 12 13  1  0
 13 14  1  0
 13 18  2  0
 14 15  2  0
 14 33  1  0
 15 16  1  0
 15 34  1  0
 16 17  2  0
 16 19  1  0
 17 18  1  0
 17 35  1  0
 18 36  1  0
 19 20  2  0
 19 37  1  0
 20 21  1  0
 21 22  1  0
 22 23  1  0
 22 24  1  0
 22 38  1  0
 23 39  1  0
 23 40  1  0
 23 41  1  0
 24 42  1  0
 24 43  1  0
 24 44  1  0
M  CHG  1   5  -1
M  END
> <Name>
CHEMBL3397555

> <Clean Energy>
12.1797

> <chembl_id>
CHEMBL3397555

> <chembl_pref_name>
None

> <efficacy>
0.41

> <Forcefield>
MMFF

> <ForcefieldBase>
MMFF

> <ForcefieldFFML>
<?xml version="1.0" encoding="UTF-8"?>
<!DOCTYPE ffml SYSTEM "Ffml.dtd">
<ffml version="1.0">
<forcefield name="MMFF" derivedFrom="MMFF" base="MMFF">
<atomTypes>
<atomType
name="C100"
element="C"
mass="12.011"
annotation=""/>
<atomType
name="O101"
element="O"
mass="16"
annotation=""/>
<atomType
name="N102"
element="N"
mass="14.007"
annotation=""/>
<atomType
name="H103"
element="H"
mass="1.008"
annotation=""/>
</atomTypes>
<parameters>
</parameters>
</forcefield>
</ffml>

> <Initial Potential Energy>
174.09212

> <Initial RMS Gradient>
31.22464

> <Minimization Criteria>
STEEPD> Minimization exiting with gradient tolerance ( 3.0000000) satisfied.

> <CHARMm Energy>
111.46647

> <Potential Energy>
111.46647

> <RMS Gradient>
0.048

> <Bond Energy>
4.54522

> <Angle Energy>
14.32512

> <STRBend>
0.7571

> <Dihedral Energy>
1.34781

> <OOPLane>
0.01522

> <Van der Waals Energy>
43.17711

> <Electrostatic Energy>
47.2989

> <Hydrogen Bond Energy>
0

> <Solvation Free Energy>
0

> <HasGasteigerCharges>
true

> <REMARK99>
REMARK  99  MacroMolecule created from Mol2 file
REMARK  99  CHEMBL3397555
REMARK  99  PROTEIN
REMARK  99  GASTEIGER
REMARK  99
REMARK  99

$$$$
CHEMBL4062472
  SciTegic05292516403D

 47 50  0  0  0  0            999 V2000
   41.9065   -4.7910   -1.9453 O   0  0
   42.0677   -4.6739   -0.5074 S   0  0
   43.3872   -4.5860    0.0821 O   0  0
   37.3683   -2.0591   -1.1626 C   0  0
   37.8221   -3.2323   -1.7502 C   0  0
   39.1077   -3.7147   -1.4863 C   0  0
   38.1934   -1.3232   -0.3081 C   0  0
   39.4927   -1.7976   -0.0227 C   0  0
   39.9362   -2.9869   -0.6079 C   0  0
   41.2221   -3.2180   -0.1225 N   0  0
   41.5894   -2.2310    0.7874 C   0  0
   40.5368   -1.3260    0.8133 C   0  0
   41.1741   -5.9880    0.3147 C   0  0
   42.8227   -2.1643    1.6425 C   0  0
   43.7406   -0.9758    1.3339 C   0  0
   44.5396   -1.1053    0.0338 C   0  0
   35.7585   -1.5259   -1.4781 Cl  0  0
   45.5682    0.0052   -0.0915 C   0  0
   45.7888    0.8633    0.7496 O   0  0
   46.2570   -0.0371   -1.2570 O   0  0
   40.5017   -5.6796    1.5084 C   0  0
   39.6008   -7.9171    1.5960 C   0  0
   39.7177   -6.6403    2.1400 C   0  0
   41.1160   -7.3028   -0.2359 C   0  0
   40.2967   -8.2599    0.4270 C   0  0
   40.1778   -9.5649   -0.0779 C   0  0
   40.8639   -9.9625   -1.2227 C   0  0
   41.6873   -9.0584   -1.8734 C   0  0
   41.8147   -7.7529   -1.3862 C   0  0
   37.1766   -3.7924   -2.4219 H   0  0
   39.4309   -4.6378   -1.9614 H   0  0
   37.8337   -0.4045    0.1484 H   0  0
   40.5020   -0.4313    1.4261 H   0  0
   42.4699   -2.0359    2.6765 H   0  0
   43.4005   -3.0842    1.6775 H   0  0
   43.1663   -0.0406    1.3179 H   0  0
   44.4460   -0.8811    2.1705 H   0  0
   45.0733   -2.0614    0.0177 H   0  0
   43.8632   -1.0533   -0.8258 H   0  0
   45.9801   -0.7683   -1.8420 H   0  0
   40.5687   -4.6985    1.9706 H   0  0
   38.9723   -8.6511    2.1033 H   0  0
   39.1942   -6.3882    3.0588 H   0  0
   39.5440  -10.2975    0.4226 H   0  0
   40.7556  -10.9800   -1.5957 H   0  0
   42.2425   -9.3533   -2.7601 H   0  0
   42.4906   -7.0979   -1.9313 H   0  0
  2  1  2  0
  2 13  1  0
  3  2  2  0
  4  5  2  0
  4 17  1  0
  5  6  1  0
  5 30  1  0
  6  9  2  0
  6 31  1  0
  7  4  1  0
  7 32  1  0
  8  7  2  0
  8  9  1  0
  9 10  1  0
 10  2  1  0
 10 11  1  0
 11 12  2  0
 11 14  1  0
 12  8  1  0
 12 33  1  0
 13 21  2  0
 14 15  1  0
 14 34  1  0
 14 35  1  0
 15 16  1  0
 15 36  1  0
 15 37  1  0
 16 18  1  0
 16 38  1  0
 16 39  1  0
 18 19  2  0
 18 20  1  0
 20 40  1  0
 21 41  1  0
 22 23  2  0
 22 25  1  0
 22 42  1  0
 23 21  1  0
 23 43  1  0
 24 13  1  0
 24 25  1  0
 25 26  2  0
 26 27  1  0
 26 44  1  0
 27 28  2  0
 27 45  1  0
 28 29  1  0
 28 46  1  0
 29 24  2  0
 29 47  1  0
M  END
> <Name>
CHEMBL4062472

> <Clean Energy>
34.5956

> <chembl_id>
CHEMBL4062472

> <chembl_pref_name>
None

> <efficacy>
0.36

> <Forcefield>
MMFF

> <ForcefieldBase>
MMFF

> <ForcefieldFFML>
<?xml version="1.0" encoding="UTF-8"?>
<!DOCTYPE ffml SYSTEM "Ffml.dtd">
<ffml version="1.0">
<forcefield name="MMFF" derivedFrom="MMFF" base="MMFF">
<atomTypes>
<atomType
name="O100"
element="O"
mass="16"
annotation=""/>
<atomType
name="S101"
element="S"
mass="32.066"
annotation=""/>
<atomType
name="C102"
element="C"
mass="12.011"
annotation=""/>
<atomType
name="N103"
element="N"
mass="14.007"
annotation=""/>
<atomType
name="Cl104"
element="Cl"
mass="35.453"
annotation=""/>
<atomType
name="H105"
element="H"
mass="1.008"
annotation=""/>
</atomTypes>
<parameters>
</parameters>
</forcefield>
</ffml>

> <Initial Potential Energy>
531.13691

> <Initial RMS Gradient>
248.69021

> <Minimization Criteria>
STEEPD> Minimization exiting with gradient tolerance ( 3.0000000) satisfied.

> <CHARMm Energy>
108.64787

> <Potential Energy>
108.64787

> <RMS Gradient>
0.03182

> <Bond Energy>
8.23448

> <Angle Energy>
15.2847

> <STRBend>
1.36899

> <Dihedral Energy>
-9.2038

> <OOPLane>
0.10115

> <Van der Waals Energy>
52.02303

> <Electrostatic Energy>
40.83933

> <Hydrogen Bond Energy>
0

> <Solvation Free Energy>
0

> <HasGasteigerCharges>
true

> <REMARK99>
REMARK  99  MacroMolecule created from Mol2 file
REMARK  99  CHEMBL4062472
REMARK  99  PROTEIN
REMARK  99  GASTEIGER
REMARK  99
REMARK  99

$$$$
CHEMBL4877893
  SciTegic05292516403D

 34 36  0  0  0  0            999 V2000
   31.3458  -10.9969    2.0336 C   0  0
   32.6094  -10.5154    1.6749 C   0  0
   32.8374   -9.9130    0.4310 C   0  0
   31.7776   -9.7883   -0.4857 C   0  0
   30.3112  -10.8517    1.1043 C   0  0
   30.4946  -10.2591   -0.1396 C   0  0
   29.2307  -10.2722   -0.7933 C   0  0
   28.2938  -10.8529    0.0495 C   0  0
   28.9874  -11.2130    1.1862 N   0  0
   34.2183   -9.4167    0.0715 C   0  0
   35.1086  -10.5546   -0.4218 C   0  0
   36.5023  -10.0721   -0.7443 C   0  0
   37.3074  -11.0796   -1.1582 O   0  0
   36.8935   -8.9198   -0.6586 O   0  0
   26.8524  -11.1006   -0.1438 C   0  0
   25.9017  -11.0997    0.8907 C   0  0
   24.5695  -11.3416    0.5687 C   0  0
   24.1173  -11.5833   -0.6833 N   0  0
   25.0368  -11.5811   -1.6652 C   0  0
   26.3882  -11.3493   -1.4469 C   0  0
   26.2824  -10.8010    2.5489 Cl  0  0
   31.1795  -11.4555    3.0029 H   0  0
   33.4244  -10.6095    2.3910 H   0  0
   31.9347   -9.3197   -1.4534 H   0  0
   29.0293   -9.8696   -1.7775 H   0  0
   28.5680  -11.6480    1.9963 H   0  0
   34.1449   -8.6332   -0.6938 H   0  0
   34.6655   -8.9310    0.9486 H   0  0
   35.1888  -11.3315    0.3475 H   0  0
   34.6804  -11.0002   -1.3272 H   0  0
   36.8639  -11.9489   -1.1813 H   0  0
   23.7969  -11.3470    1.3340 H   0  0
   24.6536  -11.7782   -2.6631 H   0  0
   27.0769  -11.3737   -2.2875 H   0  0
  1  2  2  0
  1 22  1  0
  2  3  1  0
  2 23  1  0
  3  4  2  0
  3 10  1  0
  4  6  1  0
  4 24  1  0
  5  1  1  0
  5  6  2  0
  6  7  1  0
  7  8  2  0
  7 25  1  0
  8  9  1  0
  8 15  1  0
  9  5  1  0
  9 26  1  0
 10 11  1  0
 10 27  1  0
 10 28  1  0
 11 12  1  0
 11 29  1  0
 11 30  1  0
 12 13  1  0
 12 14  2  0
 13 31  1  0
 15 16  2  0
 16 17  1  0
 16 21  1  0
 17 18  2  0
 17 32  1  0
 18 19  1  0
 19 20  2  0
 19 33  1  0
 20 15  1  0
 20 34  1  0
M  END
> <Name>
CHEMBL4877893

> <Clean Energy>
20.3866

> <chembl_id>
CHEMBL4877893

> <chembl_pref_name>
None

> <efficacy>
0.0019

> <Forcefield>
MMFF

> <ForcefieldBase>
MMFF

> <ForcefieldFFML>
<?xml version="1.0" encoding="UTF-8"?>
<!DOCTYPE ffml SYSTEM "Ffml.dtd">
<ffml version="1.0">
<forcefield name="MMFF" derivedFrom="MMFF" base="MMFF">
<atomTypes>
<atomType
name="C100"
element="C"
mass="12.011"
annotation=""/>
<atomType
name="N101"
element="N"
mass="14.007"
annotation=""/>
<atomType
name="O102"
element="O"
mass="16"
annotation=""/>
<atomType
name="Cl103"
element="Cl"
mass="35.453"
annotation=""/>
<atomType
name="H104"
element="H"
mass="1.008"
annotation=""/>
</atomTypes>
<parameters>
</parameters>
</forcefield>
</ffml>

> <Initial Potential Energy>
83.85169

> <Initial RMS Gradient>
35.79812

> <Minimization Criteria>
STEEPD> Minimization exiting with gradient tolerance ( 3.0000000) satisfied.

> <CHARMm Energy>
21.24357

> <Potential Energy>
21.24357

> <RMS Gradient>
0.01631

> <Bond Energy>
4.06917

> <Angle Energy>
3.93216

> <STRBend>
-0.06079

> <Dihedral Energy>
-1.45954

> <OOPLane>
-0.00087

> <Van der Waals Energy>
36.21902

> <Electrostatic Energy>
-21.45558

> <Hydrogen Bond Energy>
0

> <Solvation Free Energy>
0

> <HasGasteigerCharges>
true

> <REMARK99>
REMARK  99  MacroMolecule created from Mol2 file
REMARK  99  CHEMBL4877893
REMARK  99  PROTEIN
REMARK  99  GASTEIGER
REMARK  99
REMARK  99

$$$$
CHEMBL3752362
  SciTegic05292516403D

 54 56  0  0  0  0            999 V2000
  -14.0980    7.2242   -0.8896 C   0  0
  -13.9149    6.1250    0.1757 C   0  0
  -13.7719    6.8073    1.5463 C   0  0
  -12.6993    5.2310   -0.1735 C   0  0
  -11.3366    5.9272   -0.1567 C   0  0
  -10.2163    4.9383   -0.4773 C   0  0
   -8.9711    5.6224   -0.3475 O   0  0
   -7.8443    4.8497   -0.4094 C   0  0
   -6.6640    5.5000   -0.0456 C   0  0
   -5.4449    4.8187   -0.0543 C   0  0
   -5.3956    3.4727   -0.4242 C   0  0
   -6.5748    2.8299   -0.8141 C   0  0
   -7.7932    3.5141   -0.8059 C   0  0
   -4.1035    2.7874   -0.4424 C   0  0
   -3.9201    1.5565    0.0605 C   0  0
   -2.6199    0.8764    0.0363 C   0  0
   -2.5751   -0.4885   -0.2581 C   0  0
   -1.3545   -1.1664   -0.2849 C   0  0
   -1.4276    1.5480    0.3390 C   0  0
  -15.1697    5.2378    0.1767 C   0  0
  -16.0757    5.3162   -0.6399 O   0  0
  -15.1941    4.3078    1.1603 O   0  0
   -0.1924    0.8817    0.3139 C   0  0
   -0.1556   -0.4936   -0.0063 C   0  0
    1.0803   -1.1563   -0.0367 C   0  0
    2.2633   -0.4714    0.2453 C   0  0
    2.2261    0.8829    0.5630 C   0  0
    1.0060    1.5557    0.5989 C   0  0
  -15.0170    7.7964   -0.7137 H   0  0
  -14.1706    6.7944   -1.8954 H   0  0
  -13.2668    7.9370   -0.8883 H   0  0
  -13.4685    6.1001    2.3256 H   0  0
  -14.7218    7.2531    1.8638 H   0  0
  -13.0242    7.6076    1.5223 H   0  0
  -12.6539    4.3862    0.5256 H   0  0
  -12.8590    4.7818   -1.1635 H   0  0
  -11.3032    6.7484   -0.8811 H   0  0
  -11.1412    6.3743    0.8247 H   0  0
  -10.2643    4.1017    0.2308 H   0  0
  -10.3345    4.5691   -1.5030 H   0  0
   -6.6920    6.5443    0.2539 H   0  0
   -4.5448    5.3481    0.2432 H   0  0
   -6.5592    1.7929   -1.1404 H   0  0
   -8.6762    2.9726   -1.1249 H   0  0
   -3.2775    3.3411   -0.8861 H   0  0
   -4.7371    0.9935    0.5037 H   0  0
   -3.4879   -1.0350   -0.4832 H   0  0
   -1.3475   -2.2262   -0.5280 H   0  0
   -1.4573    2.6030    0.6023 H   0  0
  -14.4137    4.2986    1.7441 H   0  0
    1.1318   -2.2145   -0.2820 H   0  0
    3.2136   -0.9964    0.2162 H   0  0
    3.1468    1.4162    0.7828 H   0  0
    0.9952    2.6144    0.8480 H   0  0
  1 29  1  0
  1 30  1  0
  1 31  1  0
  2  1  1  0
  2  4  1  0
  2 20  1  0
  3  2  1  0
  3 32  1  0
  3 33  1  0
  3 34  1  0
  4  5  1  0
  4 35  1  0
  4 36  1  0
  5  6  1  0
  5 37  1  0
  5 38  1  0
  6  7  1  0
  6 39  1  0
  6 40  1  0
  7  8  1  0
  8  9  1  0
  8 13  2  0
  9 10  2  0
  9 41  1  0
 10 11  1  0
 10 42  1  0
 11 12  2  0
 11 14  1  0
 12 13  1  0
 12 43  1  0
 13 44  1  0
 14 15  2  0
 14 45  1  0
 15 16  1  0
 15 46  1  0
 16 17  1  0
 16 19  2  0
 17 18  2  0
 17 47  1  0
 18 24  1  0
 18 48  1  0
 19 49  1  0
 20 21  2  0
 20 22  1  0
 22 50  1  0
 23 19  1  0
 23 24  1  0
 24 25  2  0
 25 26  1  0
 25 51  1  0
 26 27  2  0
 26 52  1  0
 27 28  1  0
 27 53  1  0
 28 23  2  0
 28 54  1  0
M  END
> <Name>
CHEMBL3752362

> <Clean Energy>
10.5201

> <chembl_id>
CHEMBL3752362

> <chembl_pref_name>
None

> <efficacy>
0.22

> <Forcefield>
MMFF

> <ForcefieldBase>
MMFF

> <ForcefieldFFML>
<?xml version="1.0" encoding="UTF-8"?>
<!DOCTYPE ffml SYSTEM "Ffml.dtd">
<ffml version="1.0">
<forcefield name="MMFF" derivedFrom="MMFF" base="MMFF">
<atomTypes>
<atomType
name="C100"
element="C"
mass="12.011"
annotation=""/>
<atomType
name="O101"
element="O"
mass="16"
annotation=""/>
<atomType
name="H102"
element="H"
mass="1.008"
annotation=""/>
</atomTypes>
<parameters>
</parameters>
</forcefield>
</ffml>

> <Initial Potential Energy>
109.24136

> <Initial RMS Gradient>
28.19652

> <Minimization Criteria>
STEEPD> Minimization exiting with gradient tolerance ( 3.0000000) satisfied.

> <CHARMm Energy>
52.24159

> <Potential Energy>
52.24159

> <RMS Gradient>
0.06122

> <Bond Energy>
6.45601

> <Angle Energy>
9.91838

> <STRBend>
0.1408

> <Dihedral Energy>
3.50122

> <OOPLane>
0.03265

> <Van der Waals Energy>
64.73476

> <Electrostatic Energy>
-32.54223

> <Hydrogen Bond Energy>
0

> <Solvation Free Energy>
0

> <HasGasteigerCharges>
true

> <REMARK99>
REMARK  99  MacroMolecule created from Mol2 file
REMARK  99  CHEMBL3752362
REMARK  99  PROTEIN
REMARK  99  GASTEIGER
REMARK  99
REMARK  99

$$$$
CHEMBL4439373
  SciTegic05292516403D

 69 73  0  0  0  0            999 V2000
   36.9394  -13.0717   -0.0325 C   0  0
   36.9286  -14.2626   -0.7601 C   0  0
   38.1099  -14.9854   -0.9716 C   0  0
   38.1376  -12.6141    0.5394 C   0  0
   39.3424  -13.3211    0.3317 C   0  0
   39.3101  -14.4868   -0.4334 C   0  0
   40.6140  -14.9481   -0.5261 N   0  0
   41.4677  -14.1087    0.1670 C   0  0
   40.6974  -13.0998    0.7299 C   0  0
   41.1968  -11.9672    1.5592 C   0  0
   42.9480  -14.2944    0.2169 C   0  0
   35.7195  -12.2335    0.1637 C   0  0
   35.6269  -11.4923    1.1375 O   0  0
   34.7507  -12.2855   -0.8210 N   0  0
   41.0258  -16.0601   -1.3813 C   0  0
   40.7073  -17.4186   -0.8071 C   0  0
   39.9455  -18.3249   -1.5559 C   0  0
   39.7535  -19.6337   -1.1088 C   0  0
   40.3375  -20.0838    0.0832 C   0  0
   41.0485  -19.1586    0.8593 C   0  0
   41.2361  -17.8435    0.4186 C   0  0
   40.2283  -21.4956    0.4859 C   0  0
   39.4119  -21.8350    1.5793 C   0  0
   39.2555  -23.1613    1.9844 C   0  0
   39.9162  -24.1830    1.3064 C   0  0
   40.7448  -23.8782    0.2289 C   0  0
   40.9110  -22.5429   -0.1724 C   0  0
   41.8236  -22.2729   -1.3102 C   0  0
   43.0686  -22.7423   -1.0813 O   0  0
   41.4948  -21.6628   -2.3121 O   0  0
   33.5684  -11.4391   -0.7855 C   0  0
   32.5060  -11.9544    0.1889 C   0  0
   31.2447  -11.1262    0.1413 C   0  0
   31.1557   -9.9279    0.8653 C   0  0
   29.9939   -9.1529    0.8188 C   0  0
   28.9190   -9.5763    0.0446 C   0  0
   28.9913  -10.7573   -0.6843 C   0  0
   30.1527  -11.5317   -0.6383 C   0  0
   27.7633   -8.8541   -0.0260 O   0  0
   36.0066  -14.6667   -1.1664 H   0  0
   38.0883  -15.9071   -1.5441 H   0  0
   38.1428  -11.6948    1.1191 H   0  0
   40.3804  -11.3484    1.9422 H   0  0
   41.8568  -11.3254    0.9668 H   0  0
   41.7596  -12.3435    2.4197 H   0  0
   43.4160  -13.5835    0.9050 H   0  0
   43.3865  -14.1341   -0.7732 H   0  0
   43.2086  -15.2998    0.5588 H   0  0
   34.9056  -12.8652   -1.6352 H   0  0
   40.5305  -15.9082   -2.3484 H   0  0
   42.1009  -15.9895   -1.5738 H   0  0
   39.5264  -18.0375   -2.5179 H   0  0
   39.2011  -20.3310   -1.7380 H   0  0
   41.5013  -19.4664    1.7994 H   0  0
   41.8317  -17.1698    1.0302 H   0  0
   38.8740  -21.0544    2.1161 H   0  0
   38.6076  -23.3993    2.8255 H   0  0
   39.7770  -25.2149    1.6150 H   0  0
   41.2435  -24.6787   -0.3111 H   0  0
   43.2042  -23.0786   -0.1750 H   0  0
   33.8780  -10.4217   -0.5191 H   0  0
   33.1714  -11.4087   -1.8066 H   0  0
   32.2682  -13.0015   -0.0398 H   0  0
   32.8952  -11.9615    1.2148 H   0  0
   31.9944   -9.5939    1.4744 H   0  0
   29.9523   -8.2318    1.3902 H   0  0
   28.1452  -11.0768   -1.2854 H   0  0
   30.1948  -12.4552   -1.2104 H   0  0
   27.8501   -8.0757    0.5482 H   0  0
  1  2  2  0
  1 12  1  0
  2  3  1  0
  2 40  1  0
  3  6  2  0
  3 41  1  0
  4  1  1  0
  4 42  1  0
  5  4  2  0
  5  6  1  0
  6  7  1  0
  7  8  1  0
  7 15  1  0
  8  9  2  0
  8 11  1  0
  9  5  1  0
  9 10  1  0
 10 43  1  0
 10 44  1  0
 10 45  1  0
 11 46  1  0
 11 47  1  0
 11 48  1  0
 12 13  2  0
 12 14  1  0
 14 31  1  0
 14 49  1  0
 15 16  1  0
 15 50  1  0
 15 51  1  0
 16 17  2  0
 17 18  1  0
 17 52  1  0
 18 19  2  0
 18 53  1  0
 19 20  1  0
 19 22  1  0
 20 21  2  0
 20 54  1  0
 21 16  1  0
 21 55  1  0
 22 23  2  0
 23 24  1  0
 23 56  1  0
 24 25  2  0
 24 57  1  0
 25 26  1  0
 25 58  1  0
 26 27  2  0
 26 59  1  0
 27 22  1  0
 27 28  1  0
 28 29  1  0
 28 30  2  0
 29 60  1  0
 31 32  1  0
 31 61  1  0
 31 62  1  0
 32 33  1  0
 32 63  1  0
 32 64  1  0
 33 34  2  0
 34 35  1  0
 34 65  1  0
 35 36  2  0
 35 66  1  0
 36 37  1  0
 36 39  1  0
 37 38  2  0
 37 67  1  0
 38 33  1  0
 38 68  1  0
 39 69  1  0
M  END
> <Name>
CHEMBL4439373

> <Clean Energy>
40.667301

> <chembl_id>
CHEMBL4439373

> <chembl_pref_name>
None

> <efficacy>
0.31

> <Forcefield>
MMFF

> <ForcefieldBase>
MMFF

> <ForcefieldFFML>
<?xml version="1.0" encoding="UTF-8"?>
<!DOCTYPE ffml SYSTEM "Ffml.dtd">
<ffml version="1.0">
<forcefield name="MMFF" derivedFrom="MMFF" base="MMFF">
<atomTypes>
<atomType
name="C100"
element="C"
mass="12.011"
annotation=""/>
<atomType
name="N101"
element="N"
mass="14.007"
annotation=""/>
<atomType
name="O102"
element="O"
mass="16"
annotation=""/>
<atomType
name="H103"
element="H"
mass="1.008"
annotation=""/>
</atomTypes>
<parameters>
</parameters>
</forcefield>
</ffml>

> <Initial Potential Energy>
411.01819

> <Initial RMS Gradient>
92.40902

> <Minimization Criteria>
STEEPD> Minimization exiting with gradient tolerance ( 3.0000000) satisfied.

> <CHARMm Energy>
89.5846

> <Potential Energy>
89.5846

> <RMS Gradient>
0.03327

> <Bond Energy>
9.31428

> <Angle Energy>
10.21251

> <STRBend>
-0.1087

> <Dihedral Energy>
13.31693

> <OOPLane>
0.2474

> <Van der Waals Energy>
76.72164

> <Electrostatic Energy>
-20.11946

> <Hydrogen Bond Energy>
0

> <Solvation Free Energy>
0

> <HasGasteigerCharges>
true

> <REMARK99>
REMARK  99  MacroMolecule created from Mol2 file
REMARK  99  CHEMBL4439373
REMARK  99  PROTEIN
REMARK  99  GASTEIGER
REMARK  99
REMARK  99

$$$$
CHEMBL4474407
  SciTegic05292516403D

 54 56  0  0  0  0            999 V2000
    4.6036   -9.1528   -0.5006 O   0  0
    4.7547   -7.7880   -0.9551 S   0  0
    5.1715   -7.4799   -2.3071 O   0  0
   15.4338  -10.9906    0.0958 C   0  0
   13.8998  -10.7306    0.0565 C   0  0  2  0  0  0
   13.1966  -11.9417   -0.5753 C   0  0
   13.0835  -13.1192    0.4022 C   0  0
   12.2910  -14.2742   -0.2159 C   0  0
   12.1207  -15.4309    0.7704 C   0  0
   11.3068  -16.5700    0.1554 C   0  0
   11.1089  -17.7106    1.1409 C   0  0
   16.0078  -11.6076    0.9882 O   0  0
   16.1402  -10.5512   -0.9780 O   0  0
   13.5204   -9.2013   -0.9030 S   0  0
   11.0234   -7.5516   -1.4183 S   0  0
   11.8068   -8.8530   -0.5980 C   0  0
   11.0387   -9.5243    0.2319 N   0  0
    9.7432   -8.9917    0.2344 C   0  0
    9.5395   -7.8940   -0.6043 C   0  0
    8.6427   -9.4497    0.9932 C   0  0
    7.3946   -8.7993    0.9116 C   0  0
    7.2168   -7.6892    0.0906 C   0  0
    8.2858   -7.2356   -0.6989 C   0  0
    5.9244   -7.0177    0.0415 N   0  0
    3.3100   -6.8681   -0.5386 C   0  0
    2.7351   -7.0521    0.7229 C   0  0
    1.6247   -6.2936    1.0844 C   0  0
    1.0967   -5.3692    0.1825 C   0  0
    1.6627   -5.2003   -1.0829 C   0  0
    2.7755   -5.9554   -1.4507 C   0  0
   -0.2621   -4.4220    0.6387 Cl  0  0
   13.5696  -10.5528    1.0858 H   0  0
   12.1819  -11.6799   -0.8968 H   0  0
   13.7372  -12.2701   -1.4728 H   0  0
   14.0811  -13.4733    0.6848 H   0  0
   12.5841  -12.7842    1.3195 H   0  0
   11.3031  -13.9146   -0.5287 H   0  0
   12.8051  -14.6305   -1.1167 H   0  0
   13.1063  -15.8042    1.0738 H   0  0
   11.6186  -15.0701    1.6764 H   0  0
   10.3258  -16.1976   -0.1623 H   0  0
   11.8142  -16.9508   -0.7386 H   0  0
   10.5147  -18.5073    0.6825 H   0  0
   10.5826  -17.3679    2.0375 H   0  0
   12.0699  -18.1360    1.4470 H   0  0
   15.5777  -10.0684   -1.6158 H   0  0
    8.7647  -10.3084    1.6468 H   0  0
    6.5662   -9.1740    1.5093 H   0  0
    8.1692   -6.3920   -1.3720 H   0  0
    6.0384   -6.0629   -0.3020 H   0  0
    3.1533   -7.7715    1.4240 H   0  0
    1.1771   -6.4245    2.0666 H   0  0
    1.2446   -4.4811   -1.7819 H   0  0
    3.2231   -5.8217   -2.4336 H   0  0
  2  1  2  0
  2 24  1  0
  2 25  1  0
  3  2  2  0
  4  5  1  0
  4 12  2  0
  4 13  1  0
  5  6  1  0
  5 14  1  0
  5 32  1  0
  6  7  1  0
  6 33  1  0
  6 34  1  0
  7  8  1  0
  7 35  1  0
  7 36  1  0
  8  9  1  0
  8 37  1  0
  8 38  1  0
  9 10  1  0
  9 39  1  0
  9 40  1  0
 10 11  1  0
 10 41  1  0
 10 42  1  0
 11 43  1  0
 11 44  1  0
 11 45  1  0
 13 46  1  0
 14 16  1  0
 15 16  1  0
 15 19  1  0
 16 17  2  0
 17 18  1  0
 18 19  1  0
 18 20  2  0
 19 23  2  0
 20 21  1  0
 20 47  1  0
 21 22  2  0
 21 48  1  0
 22 23  1  0
 22 24  1  0
 23 49  1  0
 24 50  1  0
 25 26  1  0
 25 30  2  0
 26 27  2  0
 26 51  1  0
 27 28  1  0
 27 52  1  0
 28 29  2  0
 28 31  1  0
 29 30  1  0
 29 53  1  0
 30 54  1  0
M  END
> <Name>
CHEMBL4474407

> <Clean Energy>
37.718498

> <chembl_id>
CHEMBL4474407

> <chembl_pref_name>
None

> <efficacy>
0.37037037

> <Forcefield>
MMFF

> <ForcefieldBase>
MMFF

> <ForcefieldFFML>
<?xml version="1.0" encoding="UTF-8"?>
<!DOCTYPE ffml SYSTEM "Ffml.dtd">
<ffml version="1.0">
<forcefield name="MMFF" derivedFrom="MMFF" base="MMFF">
<atomTypes>
<atomType
name="O100"
element="O"
mass="16"
annotation=""/>
<atomType
name="S101"
element="S"
mass="32.066"
annotation=""/>
<atomType
name="C102"
element="C"
mass="12.011"
annotation=""/>
<atomType
name="N103"
element="N"
mass="14.007"
annotation=""/>
<atomType
name="Cl104"
element="Cl"
mass="35.453"
annotation=""/>
<atomType
name="H105"
element="H"
mass="1.008"
annotation=""/>
</atomTypes>
<parameters>
</parameters>
</forcefield>
</ffml>

> <Initial Potential Energy>
83.74724

> <Initial RMS Gradient>
31.38365

> <Minimization Criteria>
STEEPD> Minimization exiting with gradient tolerance ( 3.0000000) satisfied.

> <CHARMm Energy>
-20.5668

> <Potential Energy>
-20.5668

> <RMS Gradient>
0.11302

> <Bond Energy>
7.14995

> <Angle Energy>
14.05774

> <STRBend>
-0.26386

> <Dihedral Energy>
-5.6422

> <OOPLane>
0.08944

> <Van der Waals Energy>
38.98297

> <Electrostatic Energy>
-74.94084

> <Hydrogen Bond Energy>
0

> <Solvation Free Energy>
0

> <HasGasteigerCharges>
true

> <REMARK99>
REMARK  99  MacroMolecule created from Mol2 file
REMARK  99  CHEMBL4474407
REMARK  99  PROTEIN
REMARK  99  GASTEIGER
REMARK  99
REMARK  99

$$$$
CHEMBL5087457
  SciTegic05292516403D

 54 56  0  0  0  0            999 V2000
   17.4538   -2.1685    0.9300 C   0  0
   17.3075   -2.7879   -0.4692 C   0  0
   16.6295   -4.1665   -0.4112 C   0  0
   26.7610   -5.3282    0.0472 C   0  0
   26.3101   -6.3157    0.9240 C   0  0
   27.2351   -7.0577    1.6622 C   0  0
   28.6042   -6.8095    1.5361 C   0  0
   29.0598   -5.8216    0.6610 C   0  0
   28.1280   -5.0784   -0.0745 C   0  0
   30.4365   -5.5606    0.5721 N   0  0
   30.8317   -5.7050   -0.6056 N   0  0
   25.0012   -6.6444    1.1454 O   0  0
   24.0308   -5.7956    0.5223 C   0  0
   22.6396   -6.1782    1.0241 C   0  0
   21.5609   -5.2960    0.4425 C   0  0
   21.4463   -3.9567    0.8438 C   0  0
   20.4532   -3.1352    0.3041 C   0  0
   19.5413   -3.6552   -0.6101 C   0  0
   19.6755   -4.9675   -1.0570 C   0  0
   20.6735   -5.7896   -0.5235 C   0  0
   18.5838   -2.8469   -1.1556 O   0  0
   16.4050   -1.8468   -1.3208 C   0  0
   15.1525   -1.6559   -0.8204 O   0  0
   16.7292   -1.2947   -2.3639 O   0  0
   32.1881   -5.3621   -0.7019 C   0  0
   33.1362   -6.3563   -0.9579 C   0  0
   34.4863   -6.0279   -1.0803 C   0  0
   34.8936   -4.6998   -0.9570 C   0  0
   33.9548   -3.6981   -0.7146 C   0  0
   32.6057   -4.0290   -0.5922 C   0  0
   18.0262   -2.8179    1.6003 H   0  0
   16.4890   -1.9899    1.4145 H   0  0
   17.9814   -1.2094    0.8745 H   0  0
   16.5679   -4.6093   -1.4119 H   0  0
   15.6138   -4.1179   -0.0065 H   0  0
   17.1876   -4.8646    0.2214 H   0  0
   26.0829   -4.7344   -0.5571 H   0  0
   26.8902   -7.8310    2.3443 H   0  0
   29.3188   -7.3863    2.1181 H   0  0
   28.4804   -4.3034   -0.7510 H   0  0
   24.2302   -4.7477    0.7801 H   0  0
   24.0747   -5.9206   -0.5670 H   0  0
   22.4432   -7.2328    0.7922 H   0  0
   22.6059   -6.1175    2.1196 H   0  0
   22.1350   -3.5396    1.5759 H   0  0
   20.3998   -2.0918    0.6002 H   0  0
   19.0089   -5.3548   -1.8225 H   0  0
   20.7508   -6.8173   -0.8727 H   0  0
   14.9647   -2.1319    0.0083 H   0  0
   32.8193   -7.3908   -1.0572 H   0  0
   35.2191   -6.8074   -1.2717 H   0  0
   35.9452   -4.4446   -1.0510 H   0  0
   34.2744   -2.6635   -0.6215 H   0  0
   31.8678   -3.2524   -0.4060 H   0  0
  1 31  1  0
  1 32  1  0
  1 33  1  0
  2  1  1  0
  2 22  1  0
  3  2  1  0
  3 34  1  0
  3 35  1  0
  3 36  1  0
  4  5  2  0
  4 37  1  0
  5  6  1  0
  5 12  1  0
  6  7  2  0
  6 38  1  0
  7  8  1  0
  7 39  1  0
  8  9  2  0
  8 10  1  0
  9  4  1  0
  9 40  1  0
 10 11  2  0
 11 25  1  0
 12 13  1  0
 13 14  1  0
 13 41  1  0
 13 42  1  0
 14 15  1  0
 14 43  1  0
 14 44  1  0
 15 16  2  0
 16 17  1  0
 16 45  1  0
 17 18  2  0
 17 46  1  0
 18 19  1  0
 18 21  1  0
 19 20  2  0
 19 47  1  0
 20 15  1  0
 20 48  1  0
 21  2  1  0
 22 23  1  0
 22 24  2  0
 23 49  1  0
 25 26  2  0
 26 27  1  0
 26 50  1  0
 27 28  2  0
 27 51  1  0
 28 29  1  0
 28 52  1  0
 29 30  2  0
 29 53  1  0
 30 25  1  0
 30 54  1  0
M  END
> <Name>
CHEMBL5087457

> <Clean Energy>
39.647701

> <chembl_id>
CHEMBL5087457

> <chembl_pref_name>
None

> <efficacy>
0.265906933

> <Forcefield>
MMFF

> <ForcefieldBase>
MMFF

> <ForcefieldFFML>
<?xml version="1.0" encoding="UTF-8"?>
<!DOCTYPE ffml SYSTEM "Ffml.dtd">
<ffml version="1.0">
<forcefield name="MMFF" derivedFrom="MMFF" base="MMFF">
<atomTypes>
<atomType
name="C100"
element="C"
mass="12.011"
annotation=""/>
<atomType
name="N101"
element="N"
mass="14.007"
annotation=""/>
<atomType
name="O102"
element="O"
mass="16"
annotation=""/>
<atomType
name="H103"
element="H"
mass="1.008"
annotation=""/>
</atomTypes>
<parameters>
</parameters>
</forcefield>
</ffml>

> <Initial Potential Energy>
473.10946

> <Initial RMS Gradient>
180.15731

> <Minimization Criteria>
CONJUG> Minimization exiting with gradient tolerance ( 0.0100000) satisfied.

> <CHARMm Energy>
100.00011

> <Potential Energy>
100.00011

> <RMS Gradient>
0.00953

> <Bond Energy>
6.33117

> <Angle Energy>
13.49823

> <STRBend>
0.71725

> <Dihedral Energy>
13.88472

> <OOPLane>
0.09528

> <Van der Waals Energy>
63.76193

> <Electrostatic Energy>
1.71153

> <Hydrogen Bond Energy>
0

> <Solvation Free Energy>
0

> <HasGasteigerCharges>
true

> <REMARK99>
REMARK  99  MacroMolecule created from Mol2 file
REMARK  99  CHEMBL5087457
REMARK  99  PROTEIN
REMARK  99  GASTEIGER
REMARK  99
REMARK  99

$$$$
CHEMBL5093897
  SciTegic05292516403D

 54 56  0  0  0  0            999 V2000
   15.4433   -3.4891    1.0410 C   0  0
   16.2101   -2.4511    0.2098 C   0  0
   16.0882   -2.6312   -1.3094 C   0  0
   25.4133   -6.2415   -1.5940 C   0  0
   24.7443   -6.7504   -0.4753 C   0  0
   25.3436   -6.7169    0.7831 C   0  0
   26.5986   -6.1302    0.9308 C   0  0
   27.2706   -5.6036   -0.1779 C   0  0
   26.6658   -5.6535   -1.4401 C   0  0
   28.5262   -5.0040   -0.0008 N   0  0
   29.4155   -5.7153   -0.5167 N   0  0
   23.5122   -7.3392   -0.5629 O   0  0
   22.4717   -6.3484   -0.6513 C   0  0
   21.7425   -6.2461    0.6884 C   0  0
   20.6184   -5.2427    0.6533 C   0  0
   20.8012   -3.9438    1.1348 C   0  0
   19.7496   -3.0224    1.0920 C   0  0
   18.4999   -3.3684    0.5658 C   0  0
   18.3261   -4.6563    0.0709 C   0  0
   19.3747   -5.5869    0.1154 C   0  0
   17.5900   -2.3566    0.6052 O   0  0
   15.5932   -1.0605    0.5656 C   0  0
   14.2907   -0.9051    0.1933 O   0  0
   16.1742   -0.1518    1.1447 O   0  0
   30.6629   -5.0994   -0.3403 C   0  0
   31.4214   -5.3561    0.8073 C   0  0
   32.6622   -4.7468    0.9803 C   0  0
   33.1515   -3.8837    0.0003 C   0  0
   32.4105   -3.6333   -1.1540 C   0  0
   31.1701   -4.2440   -1.3247 C   0  0
   24.7259   -6.3168   -3.1753 Cl  0  0
   15.7378   -4.5162    0.8209 H   0  0
   14.3622   -3.4351    0.8771 H   0  0
   15.6261   -3.3319    2.1107 H   0  0
   16.5423   -1.7798   -1.8307 H   0  0
   15.0466   -2.7055   -1.6369 H   0  0
   16.6012   -3.5206   -1.6787 H   0  0
   24.8377   -7.1426    1.6451 H   0  0
   27.0691   -6.0928    1.9105 H   0  0
   27.1897   -5.2417   -2.2981 H   0  0
   22.8440   -5.3623   -0.9619 H   0  0
   21.7797   -6.6854   -1.4322 H   0  0
   21.3517   -7.2307    0.9766 H   0  0
   22.4512   -5.9835    1.4837 H   0  0
   21.7596   -3.6357    1.5487 H   0  0
   19.9020   -2.0164    1.4795 H   0  0
   17.3971   -4.9927   -0.3672 H   0  0
   19.2047   -6.5890   -0.2746 H   0  0
   13.9100   -1.6817   -0.2535 H   0  0
   31.0277   -6.0252    1.5677 H   0  0
   33.2513   -4.9442    1.8728 H   0  0
   34.1179   -3.4072    0.1341 H   0  0
   32.8032   -2.9662   -1.9174 H   0  0
   30.5827   -4.0501   -2.2182 H   0  0
  1 32  1  0
  1 33  1  0
  1 34  1  0
  2  1  1  0
  2 22  1  0
  3  2  1  0
  3 35  1  0
  3 36  1  0
  3 37  1  0
  4  5  2  0
  4 31  1  0
  5  6  1  0
  5 12  1  0
  6  7  2  0
  6 38  1  0
  7  8  1  0
  7 39  1  0
  8  9  2  0
  8 10  1  0
  9  4  1  0
  9 40  1  0
 10 11  2  0
 11 25  1  0
 12 13  1  0
 13 14  1  0
 13 41  1  0
 13 42  1  0
 14 15  1  0
 14 43  1  0
 14 44  1  0
 15 16  2  0
 16 17  1  0
 16 45  1  0
 17 18  2  0
 17 46  1  0
 18 19  1  0
 18 21  1  0
 19 20  2  0
 19 47  1  0
 20 15  1  0
 20 48  1  0
 21  2  1  0
 22 23  1  0
 22 24  2  0
 23 49  1  0
 25 26  2  0
 26 27  1  0
 26 50  1  0
 27 28  2  0
 27 51  1  0
 28 29  1  0
 28 52  1  0
 29 30  2  0
 29 53  1  0
 30 25  1  0
 30 54  1  0
M  END
> <Name>
CHEMBL5093897

> <Clean Energy>
45.320099

> <chembl_id>
CHEMBL5093897

> <chembl_pref_name>
None

> <efficacy>
0.208926876

> <Forcefield>
MMFF

> <ForcefieldBase>
MMFF

> <ForcefieldFFML>
<?xml version="1.0" encoding="UTF-8"?>
<!DOCTYPE ffml SYSTEM "Ffml.dtd">
<ffml version="1.0">
<forcefield name="MMFF" derivedFrom="MMFF" base="MMFF">
<atomTypes>
<atomType
name="C100"
element="C"
mass="12.011"
annotation=""/>
<atomType
name="N101"
element="N"
mass="14.007"
annotation=""/>
<atomType
name="O102"
element="O"
mass="16"
annotation=""/>
<atomType
name="Cl103"
element="Cl"
mass="35.453"
annotation=""/>
<atomType
name="H104"
element="H"
mass="1.008"
annotation=""/>
</atomTypes>
<parameters>
</parameters>
</forcefield>
</ffml>

> <Initial Potential Energy>
571.88331

> <Initial RMS Gradient>
250.48259

> <Minimization Criteria>
CONJUG> Minimization exiting with gradient tolerance ( 0.0100000) satisfied.

> <CHARMm Energy>
105.99959

> <Potential Energy>
105.99959

> <RMS Gradient>
0.00805

> <Bond Energy>
6.28787

> <Angle Energy>
19.96761

> <STRBend>
0.44459

> <Dihedral Energy>
14.65077

> <OOPLane>
0.03051

> <Van der Waals Energy>
61.896

> <Electrostatic Energy>
2.72224

> <Hydrogen Bond Energy>
0

> <Solvation Free Energy>
0

> <HasGasteigerCharges>
true

> <REMARK99>
REMARK  99  MacroMolecule created from Mol2 file
REMARK  99  CHEMBL5093897
REMARK  99  PROTEIN
REMARK  99  GASTEIGER
REMARK  99
REMARK  99

$$$$
CHEMBL4471853
  SciTegic05292516403D

 54 56  0  0  0  0            999 V2000
   32.4439   -4.1708    0.3307 C   0  0
   31.7435   -2.8762   -0.1047 C   0  0
   31.4678   -2.7719   -1.6112 C   0  0
   19.8240   -3.7781   -0.4928 C   0  0
   19.8673   -4.9058    0.3317 C   0  0
   21.0885   -5.5195    0.6124 C   0  0
   22.2723   -5.0142    0.0717 C   0  0
   22.2260   -3.9198   -0.7944 C   0  0
   21.0040   -3.3054   -1.0734 C   0  0
   18.6085   -3.1300   -0.7561 N   0  0
   18.3248   -2.3808    0.2048 N   0  0
   17.1141   -1.7135   -0.0327 C   0  0
   17.1078   -0.3165   -0.1094 C   0  0
   15.9142    0.3769   -0.3189 C   0  0
   14.7188   -0.3293   -0.4434 C   0  0
   14.7060   -1.7199   -0.3556 C   0  0
   15.9021   -2.4089   -0.1455 C   0  0
   23.4083   -5.6720    0.4551 O   0  0
   24.6332   -4.9529    0.2700 C   0  0
   25.7203   -5.5982    1.1248 C   0  0
   27.0283   -4.8593    0.9984 C   0  0
   28.0243   -5.3131    0.1286 C   0  0
   29.2269   -4.6067   -0.0198 C   0  0
   29.4521   -3.4335    0.6931 C   0  0
   28.4526   -2.9798    1.5603 C   0  0
   27.2528   -3.6805    1.7151 C   0  0
   30.5498   -2.6299    0.6576 O   0  0
   32.7078   -1.7078    0.2707 C   0  0
   33.8875   -1.7055   -0.4120 O   0  0
   32.4931   -0.8429    1.1096 O   0  0
   13.2491    0.5217   -0.7047 Cl  0  0
   31.8888   -5.0703    0.0612 H   0  0
   32.5638   -4.1914    1.4206 H   0  0
   33.4385   -4.2745   -0.1149 H   0  0
   31.0896   -1.7729   -1.8600 H   0  0
   30.7122   -3.4771   -1.9606 H   0  0
   32.3663   -2.9468   -2.2111 H   0  0
   18.9506   -5.2905    0.7703 H   0  0
   21.1134   -6.3828    1.2722 H   0  0
   23.1191   -3.5176   -1.2615 H   0  0
   20.9598   -2.4447   -1.7359 H   0  0
   18.0437    0.2280   -0.0089 H   0  0
   15.9222    1.4617   -0.3830 H   0  0
   13.7733   -2.2704   -0.4481 H   0  0
   15.8963   -3.4935   -0.0719 H   0  0
   24.9165   -4.9884   -0.7893 H   0  0
   24.5152   -3.9057    0.5786 H   0  0
   25.4080   -5.6230    2.1768 H   0  0
   25.8432   -6.6511    0.8408 H   0  0
   27.8747   -6.2246   -0.4475 H   0  0
   29.9481   -5.0145   -0.7147 H   0  0
   28.6121   -2.0632    2.1253 H   0  0
   26.4965   -3.2925    2.3947 H   0  0
   33.9945   -2.4365   -1.0457 H   0  0
  1 32  1  0
  1 33  1  0
  1 34  1  0
  2  1  1  0
  2 28  1  0
  3  2  1  0
  3 35  1  0
  3 36  1  0
  3 37  1  0
  4  5  2  0
  4 10  1  0
  5  6  1  0
  5 38  1  0
  6  7  2  0
  6 39  1  0
  7  8  1  0
  7 18  1  0
  8  9  2  0
  8 40  1  0
  9  4  1  0
  9 41  1  0
 10 11  2  0
 11 12  1  0
 12 13  2  0
 13 14  1  0
 13 42  1  0
 14 15  2  0
 14 43  1  0
 15 16  1  0
 15 31  1  0
 16 17  2  0
 16 44  1  0
 17 12  1  0
 17 45  1  0
 18 19  1  0
 19 20  1  0
 19 46  1  0
 19 47  1  0
 20 21  1  0
 20 48  1  0
 20 49  1  0
 21 22  2  0
 22 23  1  0
 22 50  1  0
 23 24  2  0
 23 51  1  0
 24 25  1  0
 24 27  1  0
 25 26  2  0
 25 52  1  0
 26 21  1  0
 26 53  1  0
 27  2  1  0
 28 29  1  0
 28 30  2  0
 29 54  1  0
M  END
> <Name>
CHEMBL4471853

> <Clean Energy>
19.5721

> <chembl_id>
CHEMBL4471853

> <chembl_pref_name>
None

> <efficacy>
0.126476733

> <Forcefield>
MMFF

> <ForcefieldBase>
MMFF

> <ForcefieldFFML>
<?xml version="1.0" encoding="UTF-8"?>
<!DOCTYPE ffml SYSTEM "Ffml.dtd">
<ffml version="1.0">
<forcefield name="MMFF" derivedFrom="MMFF" base="MMFF">
<atomTypes>
<atomType
name="C100"
element="C"
mass="12.011"
annotation=""/>
<atomType
name="N101"
element="N"
mass="14.007"
annotation=""/>
<atomType
name="O102"
element="O"
mass="16"
annotation=""/>
<atomType
name="Cl103"
element="Cl"
mass="35.453"
annotation=""/>
<atomType
name="H104"
element="H"
mass="1.008"
annotation=""/>
</atomTypes>
<parameters>
</parameters>
</forcefield>
</ffml>

> <Initial Potential Energy>
165.05946

> <Initial RMS Gradient>
30.0323

> <Minimization Criteria>
CONJUG> Minimization exiting with gradient tolerance ( 0.0100000) satisfied.

> <CHARMm Energy>
96.99144

> <Potential Energy>
96.99144

> <RMS Gradient>
0.00973

> <Bond Energy>
6.21298

> <Angle Energy>
22.50547

> <STRBend>
0.25639

> <Dihedral Energy>
6.54285

> <OOPLane>
0.02987

> <Van der Waals Energy>
63.89013

> <Electrostatic Energy>
-2.44625

> <Hydrogen Bond Energy>
0

> <Solvation Free Energy>
0

> <HasGasteigerCharges>
true

> <REMARK99>
REMARK  99  MacroMolecule created from Mol2 file
REMARK  99  CHEMBL4471853
REMARK  99  PROTEIN
REMARK  99  GASTEIGER
REMARK  99
REMARK  99

$$$$
CHEMBL1231797
  SciTegic05292516403D

 34 35  0  0  0  0            999 V2000
    3.3176   -0.6239    0.3214 I   0  0
    1.2982   -0.1692    0.1509 C   0  0
    0.9012    0.9984   -0.4957 C   0  0
   -0.4601    1.3000   -0.6082 C   0  0
   -1.4318    0.4414   -0.0760 C   0  0
   -2.7805    0.8181   -0.2362 N   0  0
   -3.8999    0.1675    0.2360 C   0  0
   -3.9227   -0.8376    0.9335 O   0  0
   -5.0535    0.8055   -0.1734 N   0  0
   -6.3746    0.3230    0.2050 C   0  0
   -7.3699    1.4878    0.2539 C   0  0
   -8.7810    1.0105    0.5863 C   0  0
   -9.2481   -0.0764   -0.3772 C   0  0
   -8.2623   -1.2396   -0.4329 C   0  0
   -6.8497   -0.7662   -0.7655 C   0  0
   -1.0178   -0.7267    0.5676 C   0  0
    0.3437   -1.0328    0.6824 C   0  0
    1.6342    1.6820   -0.9159 H   0  0
   -0.7462    2.2170   -1.1165 H   0  0
   -2.9472    1.6842   -0.7220 H   0  0
   -4.9927    1.5282   -0.8723 H   0  0
   -6.3001   -0.1134    1.2097 H   0  0
   -7.0466    2.2242    0.9998 H   0  0
   -7.3822    2.0104   -0.7117 H   0  0
   -8.8028    0.6232    1.6124 H   0  0
   -9.4748    1.8579    0.5501 H   0  0
  -10.2340   -0.4428   -0.0699 H   0  0
   -9.3642    0.3513   -1.3807 H   0  0
   -8.2544   -1.7580    0.5339 H   0  0
   -8.5932   -1.9673   -1.1824 H   0  0
   -6.1641   -1.6218   -0.7400 H   0  0
   -6.8271   -0.3829   -1.7941 H   0  0
   -1.7309   -1.4271    0.9919 H   0  0
    0.6352   -1.9491    1.1897 H   0  0
  1  2  1  0
  2  3  2  0
  3  4  1  0
  3 18  1  0
  4  5  2  0
  4 19  1  0
  5  6  1  0
  5 16  1  0
  6  7  1  0
  6 20  1  0
  7  8  2  0
  7  9  1  0
  9 10  1  0
  9 21  1  0
 10 11  1  0
 10 22  1  0
 11 12  1  0
 11 23  1  0
 11 24  1  0
 12 13  1  0
 12 25  1  0
 12 26  1  0
 13 14  1  0
 13 27  1  0
 13 28  1  0
 14 15  1  0
 14 29  1  0
 14 30  1  0
 15 10  1  0
 15 31  1  0
 15 32  1  0
 16 17  2  0
 16 33  1  0
 17  2  1  0
 17 34  1  0
M  END
> <Name>
CHEMBL1231797

> <Clean Energy>
3.07671

> <chembl_id>
CHEMBL1231797

> <chembl_pref_name>
None

> <efficacy>
0.208926876

> <Forcefield>
MMFF

> <ForcefieldBase>
MMFF

> <ForcefieldFFML>
<?xml version="1.0" encoding="UTF-8"?>
<!DOCTYPE ffml SYSTEM "Ffml.dtd">
<ffml version="1.0">
<forcefield name="MMFF" derivedFrom="MMFF" base="MMFF">
<atomTypes>
<atomType
name="I100"
element="I"
mass="126.905"
annotation=""/>
<atomType
name="C101"
element="C"
mass="12.011"
annotation=""/>
<atomType
name="N102"
element="N"
mass="14.007"
annotation=""/>
<atomType
name="O103"
element="O"
mass="16"
annotation=""/>
<atomType
name="H104"
element="H"
mass="1.008"
annotation=""/>
</atomTypes>
<parameters>
</parameters>
</forcefield>
</ffml>

> <Initial Potential Energy>
-31.51897

> <Initial RMS Gradient>
23.70108

> <Minimization Criteria>
CONJUG> Minimization exiting with gradient tolerance ( 0.0100000) satisfied.

> <CHARMm Energy>
-59.39777

> <Potential Energy>
-59.39777

> <RMS Gradient>
0.00927

> <Bond Energy>
2.44935

> <Angle Energy>
5.56894

> <STRBend>
-0.0822

> <Dihedral Energy>
-6.09858

> <OOPLane>
0.08257

> <Van der Waals Energy>
28.07941

> <Electrostatic Energy>
-89.39725

> <Hydrogen Bond Energy>
0

> <Solvation Free Energy>
0

> <HasGasteigerCharges>
true

> <REMARK99>
REMARK  99  MacroMolecule created from Mol2 file
REMARK  99  CHEMBL1231797
REMARK  99  PROTEIN
REMARK  99  GASTEIGER
REMARK  99
REMARK  99

$$$$
CHEMBL3753947
  SciTegic05292516403D

 57 58  0  0  0  0            999 V2000
    5.9754   -5.5300   -0.8992 C   0  0
    5.0792   -5.6096    0.3522 C   0  0
    5.7815   -4.8535    1.4924 C   0  0
    3.6692   -5.0468    0.0459 C   0  0
    3.6131   -3.5620   -0.3193 C   0  0
    2.1694   -3.1091   -0.5352 C   0  0
    2.1795   -1.7033   -0.7737 O   0  0
    0.9606   -1.0841   -0.7564 C   0  0
    1.0085    0.3089   -0.6915 C   0  0
   -0.1702    1.0586   -0.6513 C   0  0
   -1.4128    0.4190   -0.6736 C   0  0
   -1.4567   -0.9766   -0.7678 C   0  0
   -0.2768   -1.7251   -0.8093 C   0  0
   -2.6357    1.2256   -0.6529 C   0  0
   -3.6836    0.9449    0.1389 C   0  0
   -4.9239    1.7342    0.1590 C   0  0
   -6.1406    1.0789    0.3772 C   0  0
   -7.3425    1.7940    0.4136 C   0  0
   -7.3550    3.1851    0.2436 C   0  0
   -6.1313    3.8407    0.0502 C   0  0
   -4.9303    3.1251    0.0138 C   0  0
   -8.6458    3.9853    0.2722 C   0  0
    4.9230   -7.0878    0.7418 C   0  0
    5.3190   -8.0280    0.0691 O   0  0
    4.2676   -7.2910    1.9088 O   0  0
   -9.3103    3.9236    1.6491 C   0  0
   -9.6150    3.5349   -0.8239 C   0  0
    6.9389   -6.0245   -0.7267 H   0  0
    6.1880   -4.4943   -1.1839 H   0  0
    5.5046   -6.0242   -1.7570 H   0  0
    5.1249   -4.7210    2.3589 H   0  0
    6.1084   -3.8571    1.1757 H   0  0
    6.6691   -5.3975    1.8362 H   0  0
    3.2201   -5.6308   -0.7695 H   0  0
    3.0153   -5.2064    0.9130 H   0  0
    4.0589   -2.9496    0.4726 H   0  0
    4.1899   -3.3572   -1.2281 H   0  0
    1.7468   -3.6322   -1.4013 H   0  0
    1.5846   -3.3390    0.3644 H   0  0
    1.9718    0.8135   -0.6639 H   0  0
   -0.1031    2.1404   -0.5877 H   0  0
   -2.4101   -1.4969   -0.8224 H   0  0
   -0.3607   -2.8034   -0.8939 H   0  0
   -2.6512    2.0816   -1.3252 H   0  0
   -3.6658    0.0891    0.8090 H   0  0
   -6.1687   -0.0002    0.5099 H   0  0
   -8.2698    1.2497    0.5755 H   0  0
   -6.0983    4.9210   -0.0717 H   0  0
   -4.0017    3.6733   -0.1223 H   0  0
   -8.4071    5.0387    0.0745 H   0  0
    3.9551   -6.4828    2.3553 H   0  0
  -10.1977    4.5651    1.6779 H   0  0
   -8.6232    4.2672    2.4304 H   0  0
   -9.6260    2.9067    1.9062 H   0  0
  -10.4988    4.1816   -0.8457 H   0  0
   -9.9600    2.5068   -0.6701 H   0  0
   -9.1398    3.5835   -1.8100 H   0  0
  1 28  1  0
  1 29  1  0
  1 30  1  0
  2  1  1  0
  2  4  1  0
  2 23  1  0
  3  2  1  0
  3 31  1  0
  3 32  1  0
  3 33  1  0
  4  5  1  0
  4 34  1  0
  4 35  1  0
  5  6  1  0
  5 36  1  0
  5 37  1  0
  6  7  1  0
  6 38  1  0
  6 39  1  0
  7  8  1  0
  8  9  1  0
  8 13  2  0
  9 10  2  0
  9 40  1  0
 10 11  1  0
 10 41  1  0
 11 12  2  0
 11 14  1  0
 12 13  1  0
 12 42  1  0
 13 43  1  0
 14 15  2  0
 14 44  1  0
 15 16  1  0
 15 45  1  0
 16 17  1  0
 16 21  2  0
 17 18  2  0
 17 46  1  0
 18 19  1  0
 18 47  1  0
 19 20  2  0
 19 22  1  0
 20 21  1  0
 20 48  1  0
 21 49  1  0
 22 26  1  0
 22 27  1  0
 22 50  1  0
 23 24  2  0
 23 25  1  0
 25 51  1  0
 26 52  1  0
 26 53  1  0
 26 54  1  0
 27 55  1  0
 27 56  1  0
 27 57  1  0
M  END
> <Name>
CHEMBL3753947

> <Clean Energy>
14.1067

> <chembl_id>
CHEMBL3753947

> <chembl_pref_name>
None

> <efficacy>
0.38

> <Forcefield>
MMFF

> <ForcefieldBase>
MMFF

> <ForcefieldFFML>
<?xml version="1.0" encoding="UTF-8"?>
<!DOCTYPE ffml SYSTEM "Ffml.dtd">
<ffml version="1.0">
<forcefield name="MMFF" derivedFrom="MMFF" base="MMFF">
<atomTypes>
<atomType
name="C100"
element="C"
mass="12.011"
annotation=""/>
<atomType
name="O101"
element="O"
mass="16"
annotation=""/>
<atomType
name="H102"
element="H"
mass="1.008"
annotation=""/>
</atomTypes>
<parameters>
</parameters>
</forcefield>
</ffml>

> <Initial Potential Energy>
102.757

> <Initial RMS Gradient>
24.47993

> <Minimization Criteria>
STEEPD> Minimization exiting with gradient tolerance ( 3.0000000) satisfied.

> <CHARMm Energy>
45.48867

> <Potential Energy>
45.48867

> <RMS Gradient>
0.04324

> <Bond Energy>
5.77717

> <Angle Energy>
10.60648

> <STRBend>
0.53012

> <Dihedral Energy>
1.8685

> <OOPLane>
0.03534

> <Van der Waals Energy>
57.55694

> <Electrostatic Energy>
-30.88587

> <Hydrogen Bond Energy>
0

> <Solvation Free Energy>
0

> <HasGasteigerCharges>
true

> <REMARK99>
REMARK  99  MacroMolecule created from Mol2 file
REMARK  99  CHEMBL3753947
REMARK  99  PROTEIN
REMARK  99  GASTEIGER
REMARK  99
REMARK  99

$$$$
CHEMBL3115236
  SciTegic05292516403D

 73 77  0  0  0  0            999 V2000
    1.4233   -0.5146   -2.4099 C   0  0
    2.0935   -0.7817   -1.2135 C   0  0
    1.6300   -1.7790   -0.3417 C   0  0
    0.4929   -2.5180   -0.7175 C   0  0
   -0.1770   -2.2480   -1.9113 C   0  0
    0.2893   -1.2454   -2.7567 C   0  0
    2.3277   -2.1351    0.9653 C   0  0  1  0  0  0
    3.2047   -3.2659    0.7171 N   0  0
    3.1006   -0.9658    1.6091 C   0  0
    3.5492   -1.2579    3.0360 C   0  0
    3.2751   -4.3591    1.5548 C   0  0
    4.1977   -5.4610    1.1529 C   0  0
    2.5871   -4.4700    2.5650 O   0  0
    3.8829   -6.7656    1.5619 C   0  0
    4.6719   -7.8663    1.1959 C   0  0
    5.3529   -5.2247    0.3938 C   0  0
    7.2814   -6.3343   -0.7530 N   0  0
    6.1452   -6.3206    0.0093 C   0  0
    5.7939   -7.6088    0.3977 C   0  0
    6.7530   -8.4152   -0.1874 N   0  0
    7.6068   -7.6022   -0.9141 C   0  0
    8.7466   -8.1004   -1.7544 C   0  0
    9.1832   -7.0780   -2.8064 C   0  0
   10.3316   -7.6064   -3.6516 C   0  0
    6.7627   -9.8757   -0.1342 C   0  0
    8.0963  -10.4675    0.2586 C   0  0
    8.6330  -11.5288   -0.4876 C   0  0
    9.9119  -12.0224   -0.2120 C   0  0
   10.6798  -11.4588    0.8152 C   0  0
   10.1106  -10.4529    1.6119 C   0  0
    8.8269   -9.9702    1.3459 C   0  0
   12.0751  -11.8698    1.0022 C   0  0
   12.3850  -12.8912    1.9114 C   0  0
   13.7083  -13.2899    2.1124 C   0  0
   14.7436  -12.6838    1.4023 C   0  0
   14.4644  -11.6711    0.4897 C   0  0
   13.1382  -11.2626    0.2997 C   0  0
   12.8748  -10.1454   -0.6322 C   0  0
   13.4048   -8.9877   -0.1743 O   0  0
   12.1631  -10.2147   -1.6176 O   0  0
    1.7724    0.2812   -3.0653 H   0  0
    2.9725   -0.1884   -0.9760 H   0  0
    0.1260   -3.3140   -0.0706 H   0  0
   -1.0730   -2.8049   -2.1757 H   0  0
   -0.2420   -1.0189   -3.6787 H   0  0
    1.5481   -2.4372    1.6773 H   0  0
    3.7485   -3.2680   -0.1374 H   0  0
    3.9880   -0.7143    1.0151 H   0  0
    2.4628   -0.0731    1.6320 H   0  0
    2.6984   -1.5294    3.6687 H   0  0
    4.0225   -0.3706    3.4688 H   0  0
    4.2801   -2.0712    3.0670 H   0  0
    2.9922   -6.9348    2.1674 H   0  0
    4.4036   -8.8681    1.5154 H   0  0
    5.6627   -4.2320    0.0933 H   0  0
    9.5970   -8.3289   -1.1023 H   0  0
    8.4534   -9.0232   -2.2673 H   0  0
    8.3388   -6.8286   -3.4606 H   0  0
    9.4981   -6.1458   -2.3218 H   0  0
   10.6205   -6.8656   -4.4037 H   0  0
   10.0462   -8.5260   -4.1723 H   0  0
   11.2081   -7.8195   -3.0316 H   0  0
    6.0075  -10.2132    0.5818 H   0  0
    6.4547  -10.2110   -1.1318 H   0  0
    8.0832  -11.9520   -1.3261 H   0  0
   10.3325  -12.8090   -0.8398 H   0  0
   10.6834  -10.0082    2.4231 H   0  0
    8.4290   -9.1604    1.9563 H   0  0
   11.5931  -13.3867    2.4708 H   0  0
   13.9257  -14.0814    2.8241 H   0  0
   15.7689  -13.0047    1.5581 H   0  0
   15.2738  -11.2131   -0.0744 H   0  0
   14.0048   -9.1024    0.5900 H   0  0
  1  2  2  0
  1 41  1  0
  2  3  1  0
  2 42  1  0
  3  4  2  0
  3  7  1  0
  4  5  1  0
  4 43  1  0
  5  6  2  0
  5 44  1  0
  6  1  1  0
  6 45  1  0
  7  8  1  0
  7  9  1  0
  7 46  1  0
  8 11  1  0
  8 47  1  0
  9 10  1  0
  9 48  1  0
  9 49  1  0
 10 50  1  0
 10 51  1  0
 10 52  1  0
 11 12  1  0
 11 13  2  0
 12 14  2  0
 14 15  1  0
 14 53  1  0
 15 19  2  0
 15 54  1  0
 16 12  1  0
 16 55  1  0
 17 18  1  0
 18 16  2  0
 18 19  1  0
 19 20  1  0
 20 21  1  0
 20 25  1  0
 21 17  2  0
 21 22  1  0
 22 23  1  0
 22 56  1  0
 22 57  1  0
 23 24  1  0
 23 58  1  0
 23 59  1  0
 24 60  1  0
 24 61  1  0
 24 62  1  0
 25 26  1  0
 25 63  1  0
 25 64  1  0
 26 27  2  0
 27 28  1  0
 27 65  1  0
 28 29  2  0
 28 66  1  0
 29 30  1  0
 29 32  1  0
 30 31  2  0
 30 67  1  0
 31 26  1  0
 31 68  1  0
 32 33  2  0
 33 34  1  0
 33 69  1  0
 34 35  2  0
 34 70  1  0
 35 36  1  0
 35 71  1  0
 36 37  2  0
 36 72  1  0
 37 32  1  0
 37 38  1  0
 38 39  1  0
 38 40  2  0
 39 73  1  0
M  END
> <Name>
CHEMBL3115236

> <Clean Energy>
74.391998

> <chembl_id>
CHEMBL3115236

> <chembl_pref_name>
None

> <efficacy>
0.29

> <Forcefield>
MMFF

> <ForcefieldBase>
MMFF

> <ForcefieldFFML>
<?xml version="1.0" encoding="UTF-8"?>
<!DOCTYPE ffml SYSTEM "Ffml.dtd">
<ffml version="1.0">
<forcefield name="MMFF" derivedFrom="MMFF" base="MMFF">
<atomTypes>
<atomType
name="C100"
element="C"
mass="12.011"
annotation=""/>
<atomType
name="N101"
element="N"
mass="14.007"
annotation=""/>
<atomType
name="O102"
element="O"
mass="16"
annotation=""/>
<atomType
name="H103"
element="H"
mass="1.008"
annotation=""/>
</atomTypes>
<parameters>
</parameters>
</forcefield>
</ffml>

> <Initial Potential Energy>
349.47311

> <Initial RMS Gradient>
40.01072

> <Minimization Criteria>
CONJUG> Minimization exiting with gradient tolerance ( 0.0100000) satisfied.

> <CHARMm Energy>
64.56132

> <Potential Energy>
64.56132

> <RMS Gradient>
0.00915

> <Bond Energy>
9.52026

> <Angle Energy>
10.85563

> <STRBend>
0.1105

> <Dihedral Energy>
8.26371

> <OOPLane>
0.44961

> <Van der Waals Energy>
77.45007

> <Electrostatic Energy>
-42.08847

> <Hydrogen Bond Energy>
0

> <Solvation Free Energy>
0

> <HasGasteigerCharges>
true

> <REMARK99>
REMARK  99  MacroMolecule created from Mol2 file
REMARK  99  CHEMBL3115236
REMARK  99  PROTEIN
REMARK  99  GASTEIGER
REMARK  99
REMARK  99

$$$$
CHEMBL4436626
  SciTegic05292516403D

 68 69  0  0  0  0            999 V2000
   20.8691  -16.9370    1.1298 C   0  0
   22.1657  -17.1538    1.9199 C   0  0
   19.5714  -16.8780    1.9916 C   0  0  2  0  0  0
   16.5896  -18.3602   -1.4743 C   0  0
   16.9162  -19.6900   -1.2080 C   0  0
   17.7192  -19.9883   -0.1077 C   0  0
   17.0902  -17.3250   -0.6648 C   0  0
   17.9272  -17.6403    0.4170 C   0  0
   18.2051  -18.9744    0.7275 C   0  0
   19.0757  -19.3423    1.8933 C   0  0
   19.2795  -18.1466    2.8087 C   0  0
   18.4445  -16.5873    1.1278 O   0  0
   16.7719  -15.8936   -0.9936 C   0  0
   16.5392  -20.7774   -1.9448 O   0  0
   19.6379  -15.6820    2.9570 C   0  0
   23.3605  -17.3829    1.0283 C   0  0
   24.3691  -16.5279    0.7584 C   0  0
   25.5596  -16.9758   -0.0807 C   0  0
   24.4158  -15.0986    1.2286 C   0  0
   26.8771  -16.9716    0.7127 C   0  0
   27.9565  -17.7894    0.0475 C   0  0
   29.1647  -17.3895   -0.4095 C   0  0
   30.1513  -18.3817   -0.9667 C   0  0
   29.6717  -15.9771   -0.4140 C   0  0
   29.6476  -19.6360   -0.9009 O   0  0
   31.2525  -18.0821   -1.4008 O   0  0
   15.6241  -20.5466   -3.0090 C   0  0
   30.5321  -20.6588   -1.3566 C   0  0
   29.8882  -22.0140   -1.1242 C   0  0
   28.7823  -22.2038   -0.6320 O   0  0
   30.7327  -22.9968   -1.5503 O   0  0
   30.2330  -24.3241   -1.3739 C   0  0
   20.9499  -16.0033    0.5552 H   0  0
   20.7754  -17.7172    0.3639 H   0  0
   22.3435  -16.3154    2.5996 H   0  0
   22.0738  -18.0407    2.5569 H   0  0
   15.9631  -18.0983   -2.3210 H   0  0
   18.0053  -21.0217    0.0837 H   0  0
   18.6175  -20.1588    2.4640 H   0  0
   20.0418  -19.7015    1.5190 H   0  0
   18.3529  -17.9971    3.3815 H   0  0
   20.0671  -18.3589    3.5393 H   0  0
   17.6721  -15.3786   -1.3439 H   0  0
   16.3772  -15.3772   -0.1126 H   0  0
   16.0133  -15.8212   -1.7799 H   0  0
   18.6740  -15.5343    3.4586 H   0  0
   19.8442  -14.7530    2.4129 H   0  0
   20.4036  -15.8130    3.7275 H   0  0
   23.4107  -18.3902    0.6129 H   0  0
   25.3745  -17.9822   -0.4793 H   0  0
   25.6520  -16.3193   -0.9554 H   0  0
   24.7029  -14.4389    0.4026 H   0  0
   25.1478  -14.9842    2.0339 H   0  0
   23.4501  -14.7386    1.5928 H   0  0
   27.1966  -15.9412    0.8921 H   0  0
   26.7082  -17.4124    1.7042 H   0  0
   27.6857  -18.8460   -0.0088 H   0  0
   30.5299  -15.8801    0.2590 H   0  0
   28.9213  -15.2480   -0.1010 H   0  0
   29.9882  -15.6886   -1.4223 H   0  0
   15.3802  -21.5150   -3.4562 H   0  0
   16.0774  -19.9252   -3.7882 H   0  0
   14.6919  -20.1044   -2.6421 H   0  0
   30.7084  -20.5364   -2.4304 H   0  0
   31.4684  -20.6214   -0.7890 H   0  0
   30.9927  -25.0224   -1.7351 H   0  0
   29.3201  -24.4690   -1.9595 H   0  0
   30.0506  -24.5269   -0.3140 H   0  0
  1  2  1  0
  1  3  1  0
  1 33  1  0
  1 34  1  0
  2 16  1  0
  2 35  1  0
  2 36  1  0
  3 12  1  0
  3 15  1  0
  4  5  2  0
  4 37  1  0
  5  6  1  0
  5 14  1  0
  6  9  2  0
  6 38  1  0
  7  4  1  0
  7 13  1  0
  8  7  2  0
  8  9  1  0
  8 12  1  0
  9 10  1  0
 10 11  1  0
 10 39  1  0
 10 40  1  0
 11  3  1  0
 11 41  1  0
 11 42  1  0
 13 43  1  0
 13 44  1  0
 13 45  1  0
 14 27  1  0
 15 46  1  0
 15 47  1  0
 15 48  1  0
 16 17  2  0
 16 49  1  0
 17 18  1  0
 17 19  1  0
 18 20  1  0
 18 50  1  0
 18 51  1  0
 19 52  1  0
 19 53  1  0
 19 54  1  0
 20 21  1  0
 20 55  1  0
 20 56  1  0
 21 22  2  0
 21 57  1  0
 22 23  1  0
 22 24  1  0
 23 25  1  0
 23 26  2  0
 24 58  1  0
 24 59  1  0
 24 60  1  0
 25 28  1  0
 27 61  1  0
 27 62  1  0
 27 63  1  0
 28 29  1  0
 28 64  1  0
 28 65  1  0
 29 30  2  0
 29 31  1  0
 31 32  1  0
 32 66  1  0
 32 67  1  0
 32 68  1  0
M  END
> <Name>
CHEMBL4436626

> <Clean Energy>
16.788799

> <chembl_id>
CHEMBL4436626

> <chembl_pref_name>
None

> <efficacy>
0.24

> <Forcefield>
MMFF

> <ForcefieldBase>
MMFF

> <ForcefieldFFML>
<?xml version="1.0" encoding="UTF-8"?>
<!DOCTYPE ffml SYSTEM "Ffml.dtd">
<ffml version="1.0">
<forcefield name="MMFF" derivedFrom="MMFF" base="MMFF">
<atomTypes>
<atomType
name="C100"
element="C"
mass="12.011"
annotation=""/>
<atomType
name="O101"
element="O"
mass="16"
annotation=""/>
<atomType
name="H102"
element="H"
mass="1.008"
annotation=""/>
</atomTypes>
<parameters>
</parameters>
</forcefield>
</ffml>

> <Initial Potential Energy>
148.25346

> <Initial RMS Gradient>
18.14378

> <Minimization Criteria>
STEEPD> Minimization exiting with gradient tolerance ( 3.0000000) satisfied.

> <CHARMm Energy>
56.23903

> <Potential Energy>
56.23903

> <RMS Gradient>
0.05941

> <Bond Energy>
6.40211

> <Angle Energy>
22.09337

> <STRBend>
0.69

> <Dihedral Energy>
-10.65635

> <OOPLane>
0.05844

> <Van der Waals Energy>
60.3918

> <Electrostatic Energy>
-22.74034

> <Hydrogen Bond Energy>
0

> <Solvation Free Energy>
0

> <HasGasteigerCharges>
true

> <REMARK99>
REMARK  99  MacroMolecule created from Mol2 file
REMARK  99  CHEMBL4436626
REMARK  99  PROTEIN
REMARK  99  GASTEIGER
REMARK  99
REMARK  99

$$$$
CHEMBL4449283
  SciTegic05292516403D

 54 57  0  0  0  0            999 V2000
    0.5098  -19.4437   -0.9211 C   0  0
    0.4542  -20.4950   -0.0063 C   0  0
    1.6001  -20.9227    0.6766 C   0  0
    1.7154  -18.7729   -1.1636 C   0  0
    2.8843  -19.1970   -0.4985 C   0  0
    2.8058  -20.2553    0.4059 C   0  0
    4.0980  -20.4040    0.8693 N   0  0
    4.8856  -19.4398    0.2682 C   0  0
    4.1711  -18.7207   -0.5731 N   0  0
    4.5380  -21.3824    1.8581 C   0  0
    5.5682  -22.3516    1.3271 C   0  0
    5.4308  -22.9534    0.0689 C   0  0
    6.4138  -23.8208   -0.4139 C   0  0
    7.5472  -24.1258    0.3540 C   0  0
    7.6590  -23.5618    1.6324 C   0  0
    6.6817  -22.6849    2.1133 C   0  0
    8.5753  -25.0412   -0.1615 C   0  0
    8.2532  -26.4105   -0.2429 C   0  0
    9.1755  -27.3474   -0.7052 C   0  0
   10.4466  -26.9382   -1.0909 C   0  0
   10.7932  -25.5890   -1.0218 C   0  0
    9.8670  -24.6339   -0.5649 C   0  0
   10.2604  -23.1999   -0.5748 C   0  0
   11.5953  -23.0177   -0.4892 O   0  0
    9.5236  -22.2338   -0.6481 O   0  0
    6.3528  -19.2731    0.5256 C   0  0
    6.8526  -17.8772    0.1476 C   0  0
    8.3322  -17.7149    0.4588 C   0  0
    1.7543  -17.7543   -2.0914 O   0  0
    1.1173  -16.5810   -1.5800 C   0  0
   -0.3906  -19.1447   -1.4530 H   0  0
   -0.4980  -20.9934    0.1732 H   0  0
    1.5437  -21.7471    1.3792 H   0  0
    4.9302  -20.8051    2.7038 H   0  0
    3.6715  -21.9451    2.2184 H   0  0
    4.5739  -22.7319   -0.5655 H   0  0
    6.2975  -24.2462   -1.4090 H   0  0
    8.5186  -23.7978    2.2586 H   0  0
    6.8102  -22.2523    3.1033 H   0  0
    7.2626  -26.7492    0.0589 H   0  0
    8.8919  -28.3939   -0.7640 H   0  0
   11.1658  -27.6640   -1.4573 H   0  0
   11.7874  -25.2853   -1.3439 H   0  0
   11.6316  -22.0358   -0.5217 H   0  0
    6.5671  -19.4462    1.5862 H   0  0
    6.9022  -20.0250   -0.0528 H   0  0
    6.6900  -17.6933   -0.9215 H   0  0
    6.2844  -17.1136    0.6929 H   0  0
    8.6714  -16.7131    0.1777 H   0  0
    8.9312  -18.4450   -0.0945 H   0  0
    8.5248  -17.8507    1.5279 H   0  0
    1.3244  -15.7595   -2.2722 H   0  0
    1.5173  -16.3065   -0.5973 H   0  0
    0.0319  -16.7143   -1.5285 H   0  0
  1  2  2  0
  1 31  1  0
  2  3  1  0
  2 32  1  0
  3  6  2  0
  3 33  1  0
  4  1  1  0
  4 29  1  0
  5  4  2  0
  5  6  1  0
  6  7  1  0
  7  8  1  0
  7 10  1  0
  8  9  2  0
  8 26  1  0
  9  5  1  0
 10 11  1  0
 10 34  1  0
 10 35  1  0
 11 12  2  0
 12 13  1  0
 12 36  1  0
 13 14  2  0
 13 37  1  0
 14 15  1  0
 14 17  1  0
 15 16  2  0
 15 38  1  0
 16 11  1  0
 16 39  1  0
 17 18  2  0
 18 19  1  0
 18 40  1  0
 19 20  2  0
 19 41  1  0
 20 21  1  0
 20 42  1  0
 21 22  2  0
 21 43  1  0
 22 17  1  0
 22 23  1  0
 23 24  1  0
 23 25  2  0
 24 44  1  0
 26 27  1  0
 26 45  1  0
 26 46  1  0
 27 28  1  0
 27 47  1  0
 27 48  1  0
 28 49  1  0
 28 50  1  0
 28 51  1  0
 29 30  1  0
 30 52  1  0
 30 53  1  0
 30 54  1  0
M  END
> <Name>
CHEMBL4449283

> <Clean Energy>
50.7211

> <chembl_id>
CHEMBL4449283

> <chembl_pref_name>
None

> <efficacy>
0.169990503

> <Forcefield>
MMFF

> <ForcefieldBase>
MMFF

> <ForcefieldFFML>
<?xml version="1.0" encoding="UTF-8"?>
<!DOCTYPE ffml SYSTEM "Ffml.dtd">
<ffml version="1.0">
<forcefield name="MMFF" derivedFrom="MMFF" base="MMFF">
<atomTypes>
<atomType
name="C100"
element="C"
mass="12.011"
annotation=""/>
<atomType
name="N101"
element="N"
mass="14.007"
annotation=""/>
<atomType
name="O102"
element="O"
mass="16"
annotation=""/>
<atomType
name="H103"
element="H"
mass="1.008"
annotation=""/>
</atomTypes>
<parameters>
</parameters>
</forcefield>
</ffml>

> <Initial Potential Energy>
259.10179

> <Initial RMS Gradient>
36.52602

> <Minimization Criteria>
STEEPD> Minimization exiting with gradient tolerance ( 3.0000000) satisfied.

> <CHARMm Energy>
85.74402

> <Potential Energy>
85.74402

> <RMS Gradient>
0.04806

> <Bond Energy>
7.05393

> <Angle Energy>
12.43912

> <STRBend>
0.06301

> <Dihedral Energy>
12.2594

> <OOPLane>
0.04757

> <Van der Waals Energy>
57.28411

> <Electrostatic Energy>
-3.40312

> <Hydrogen Bond Energy>
0

> <Solvation Free Energy>
0

> <HasGasteigerCharges>
true

> <REMARK99>
REMARK  99  MacroMolecule created from Mol2 file
REMARK  99  CHEMBL4449283
REMARK  99  PROTEIN
REMARK  99  GASTEIGER
REMARK  99
REMARK  99

$$$$
CHEMBL4068424
  SciTegic05292516403D

 39 41  0  0  0  0            999 V2000
   27.1051  -16.8080    0.0000 N   0  0
   27.0923  -18.1627   -0.0007 C   0  0
   25.9100  -16.1552    0.0003 C   0  0
   25.4323  -18.7300   -0.0009 S   0  0
   24.7881  -17.1373    0.0000 C   0  0
   28.0621  -18.8978   -0.0010 O   0  0
   25.7831  -14.9408    0.0009 O   0  0
   23.5246  -16.6871    0.0004 C   0  0
   22.1952  -17.3358    0.0002 C   0  0
   19.5429  -18.3536    0.0001 C   0  0
   15.9034  -18.9659    0.0001 C   0  0
   21.9521  -18.7105    0.0007 C   0  0
   21.0756  -16.4836   -0.0004 C   0  0
   17.1767  -18.1090   -0.0002 C   0  0
   20.6412  -19.2118    0.0006 C   0  0
   19.7670  -16.9813   -0.0005 C   0  0
   18.3212  -18.9687    0.0001 O   0  0
   14.6372  -18.2223   -0.0002 N   0  0
   14.6356  -16.7674   -0.0004 C   0  0
   13.4365  -18.8798   -0.0002 C   0  0
   12.2715  -18.2635   -0.0005 N   0  0
   13.2873  -20.6148    0.0001 S   0  0
   11.5862  -20.4866   -0.0002 C   0  0
   11.2258  -19.1618   -0.0005 C   0  0
   27.9788  -16.3047    0.0001 H   0  0
   23.4289  -15.5974    0.0009 H   0  0
   15.9465  -19.6224   -0.8792 H   0  0
   15.9464  -19.6218    0.8799 H   0  0
   22.7544  -19.4372    0.0013 H   0  0
   21.2048  -15.4018   -0.0008 H   0  0
   17.1916  -17.4819   -0.8995 H   0  0
   17.1916  -17.4814    0.8988 H   0  0
   20.4841  -20.2882    0.0010 H   0  0
   18.9547  -16.2627   -0.0009 H   0  0
   13.6337  -16.3245   -0.0004 H   0  0
   15.1455  -16.3854   -0.8910 H   0  0
   15.1454  -16.3852    0.8902 H   0  0
   10.9521  -21.3596   -0.0001 H   0  0
   10.2098  -18.7887   -0.0007 H   0  0
  1 25  1  0
  2  1  1  0
  3  1  1  0
  4  2  1  0
  5  3  1  0
  5  4  1  0
  6  2  2  0
  7  3  2  0
  8  5  2  0
  8 26  1  0
  9  8  1  0
 10 15  2  0
 10 16  1  0
 11 14  1  0
 11 18  1  0
 11 27  1  0
 11 28  1  0
 12  9  2  0
 12 29  1  0
 13  9  1  0
 13 30  1  0
 14 17  1  0
 14 31  1  0
 14 32  1  0
 15 12  1  0
 15 33  1  0
 16 13  2  0
 16 34  1  0
 17 10  1  0
 18 19  1  0
 18 20  1  0
 19 35  1  0
 19 36  1  0
 19 37  1  0
 20 21  2  0
 21 24  1  0
 22 20  1  0
 23 22  1  0
 23 24  2  0
 23 38  1  0
 24 39  1  0
M  END
> <Name>
CHEMBL4068424

> <Clean Energy>
44.708199

> <chembl_id>
CHEMBL4068424

> <chembl_pref_name>
None

> <efficacy>
0.294396961

> <Forcefield>
MMFF

> <ForcefieldBase>
MMFF

> <ForcefieldFFML>
<?xml version="1.0" encoding="UTF-8"?>
<!DOCTYPE ffml SYSTEM "Ffml.dtd">
<ffml version="1.0">
<forcefield name="MMFF" derivedFrom="MMFF" base="MMFF">
<atomTypes>
<atomType
name="N100"
element="N"
mass="14.007"
annotation=""/>
<atomType
name="C101"
element="C"
mass="12.011"
annotation=""/>
<atomType
name="S102"
element="S"
mass="32.066"
annotation=""/>
<atomType
name="O103"
element="O"
mass="16"
annotation=""/>
<atomType
name="H104"
element="H"
mass="1.008"
annotation=""/>
</atomTypes>
<parameters>
</parameters>
</forcefield>
</ffml>

> <Initial Potential Energy>
26.36199

> <Initial RMS Gradient>
27.89948

> <Minimization Criteria>
CONJUG> Minimization exiting with gradient tolerance ( 0.0100000) satisfied.

> <CHARMm Energy>
-27.70624

> <Potential Energy>
-27.70624

> <RMS Gradient>
0.0097

> <Bond Energy>
3.15907

> <Angle Energy>
24.35439

> <STRBend>
0.34121

> <Dihedral Energy>
2.33129

> <OOPLane>
0

> <Van der Waals Energy>
37.183

> <Electrostatic Energy>
-95.0752

> <Hydrogen Bond Energy>
0

> <Solvation Free Energy>
0

> <HasGasteigerCharges>
true

> <REMARK99>
REMARK  99  MacroMolecule created from Mol2 file
REMARK  99  CHEMBL4068424
REMARK  99  PROTEIN
REMARK  99  GASTEIGER
REMARK  99
REMARK  99

$$$$
CHEMBL4095031
  SciTegic05292516403D

 67 70  0  0  0  0            999 V2000
   25.4207  -14.8610    1.1555 C   0  0
   24.9172  -13.9955   -0.0577 C   0  0
   25.4274  -14.5935   -1.4233 C   0  0
   10.9516  -13.1289   -0.4424 C   0  0
   10.5315  -14.2098    0.3284 C   0  0
   11.4761  -15.0328    0.9378 C   0  0
   12.8420  -14.7746    0.7764 C   0  0
   13.2859  -13.6905    0.0038 C   0  0
   12.3182  -12.8719   -0.6033 C   0  0
   14.7213  -13.4376   -0.1522 C   0  0
   15.7563  -14.0939    0.3457 N   0  0
   16.8622  -13.4103   -0.1350 C   0  0
   16.4319  -12.3554   -0.9064 C   0  0
   15.0714  -12.3611   -0.9275 O   0  0
   18.2568  -13.8303    0.2068 C   0  0
   19.2370  -13.1063   -0.5578 O   0  0
   20.5573  -13.4064   -0.3555 C   0  0
   21.0716  -14.2634    0.6132 C   0  0
   22.4629  -14.4538    0.7231 C   0  0
   23.3707  -13.8198   -0.1434 C   0  0
   22.8238  -12.9628   -1.1193 C   0  0
   21.4422  -12.7580   -1.2175 C   0  0
   25.5942  -12.5976    0.2058 C   0  0
   26.8612  -12.2632   -0.3189 C   0  0
   27.4529  -11.0208   -0.0592 C   0  0
   26.7854  -10.0873    0.7271 C   0  0
   25.5686  -10.4152    1.3125 C   0  0
   24.9807  -11.6573    1.0587 C   0  0
   27.3053   -8.8592    1.0247 O   0  0
   27.5650   -8.0562   -0.1293 C   0  0  1  0  0  0
   27.2667   -6.6126    0.2665 C   0  0
   29.0049   -8.1235   -0.6491 C   0  0
   29.9727   -8.5248   -0.0194 O   0  0
   29.1320   -7.6711   -1.9261 O   0  0
   24.6111  -15.7164   -2.0668 C   0  0
   25.2694  -16.3755    1.0780 C   0  0
   24.9487  -14.5106    2.0836 H   0  0
   26.4961  -14.6818    1.3018 H   0  0
   25.4852  -13.7946   -2.1759 H   0  0
   26.4553  -14.9589   -1.2979 H   0  0
   10.2184  -12.4839   -0.9203 H   0  0
    9.4702  -14.4106    0.4538 H   0  0
   11.1549  -15.8785    1.5404 H   0  0
   13.5595  -15.4328    1.2618 H   0  0
   12.6193  -12.0213   -1.2115 H   0  0
   16.9215  -11.5706   -1.4636 H   0  0
   18.4130  -13.6395    1.2753 H   0  0
   18.3568  -14.9035    0.0047 H   0  0
   20.4337  -14.7932    1.3145 H   0  0
   22.8086  -15.1068    1.5184 H   0  0
   23.4758  -12.4310   -1.8101 H   0  0
   21.0554  -12.0832   -1.9774 H   0  0
   27.4245  -12.9712   -0.9211 H   0  0
   28.4499  -10.8182   -0.4454 H   0  0
   25.0664   -9.7076    1.9666 H   0  0
   24.0328  -11.8803    1.5433 H   0  0
   26.8861   -8.3404   -0.9457 H   0  0
   27.4068   -5.9251   -0.5736 H   0  0
   27.9220   -6.2893    1.0836 H   0  0
   26.2370   -6.5183    0.6278 H   0  0
   28.2805   -7.4375   -2.3459 H   0  0
   25.1468  -16.0971   -2.9435 H   0  0
   23.6393  -15.3611   -2.4212 H   0  0
   24.4405  -16.5609   -1.3995 H   0  0
   25.5586  -16.8217    2.0359 H   0  0
   25.9325  -16.8007    0.3189 H   0  0
   24.2449  -16.6892    0.8686 H   0  0
  1 36  1  0
  1 37  1  0
  1 38  1  0
  2  1  1  0
  2 23  1  0
  3  2  1  0
  3 35  1  0
  3 39  1  0
  3 40  1  0
  4  5  2  0
  4 41  1  0
  5  6  1  0
  5 42  1  0
  6  7  2  0
  6 43  1  0
  7  8  1  0
  7 44  1  0
  8  9  2  0
  8 10  1  0
  9  4  1  0
  9 45  1  0
 10 11  2  0
 11 12  1  0
 12 13  2  0
 12 15  1  0
 13 14  1  0
 13 46  1  0
 14 10  1  0
 15 16  1  0
 15 47  1  0
 15 48  1  0
 16 17  1  0
 17 18  2  0
 18 19  1  0
 18 49  1  0
 19 20  2  0
 19 50  1  0
 20  2  1  0
 20 21  1  0
 21 22  2  0
 21 51  1  0
 22 17  1  0
 22 52  1  0
 23 24  2  0
 24 25  1  0
 24 53  1  0
 25 26  2  0
 25 54  1  0
 26 27  1  0
 26 29  1  0
 27 28  2  0
 27 55  1  0
 28 23  1  0
 28 56  1  0
 29 30  1  0
 30 31  1  0
 30 32  1  0
 30 57  1  0
 31 58  1  0
 31 59  1  0
 31 60  1  0
 32 33  2  0
 32 34  1  0
 34 61  1  0
 35 62  1  0
 35 63  1  0
 35 64  1  0
 36 65  1  0
 36 66  1  0
 36 67  1  0
M  END
> <Name>
CHEMBL4095031

> <Clean Energy>
66.982002

> <chembl_id>
CHEMBL4095031

> <chembl_pref_name>
None

> <efficacy>
0.1

> <Forcefield>
MMFF

> <ForcefieldBase>
MMFF

> <ForcefieldFFML>
<?xml version="1.0" encoding="UTF-8"?>
<!DOCTYPE ffml SYSTEM "Ffml.dtd">
<ffml version="1.0">
<forcefield name="MMFF" derivedFrom="MMFF" base="MMFF">
<atomTypes>
<atomType
name="C100"
element="C"
mass="12.011"
annotation=""/>
<atomType
name="N101"
element="N"
mass="14.007"
annotation=""/>
<atomType
name="O102"
element="O"
mass="16"
annotation=""/>
<atomType
name="H103"
element="H"
mass="1.008"
annotation=""/>
</atomTypes>
<parameters>
</parameters>
</forcefield>
</ffml>

> <Initial Potential Energy>
263.64017

> <Initial RMS Gradient>
29.44489

> <Minimization Criteria>
CONJUG> Minimization exiting with gradient tolerance ( 0.0100000) satisfied.

> <CHARMm Energy>
135.30083

> <Potential Energy>
135.30083

> <RMS Gradient>
0.00892

> <Bond Energy>
13.34646

> <Angle Energy>
20.47843

> <STRBend>
0.77875

> <Dihedral Energy>
1.86736

> <OOPLane>
0.0778

> <Van der Waals Energy>
73.84703

> <Electrostatic Energy>
24.905

> <Hydrogen Bond Energy>
0

> <Solvation Free Energy>
0

> <HasGasteigerCharges>
true

> <REMARK99>
REMARK  99  MacroMolecule created from Mol2 file
REMARK  99  CHEMBL4095031
REMARK  99  PROTEIN
REMARK  99  GASTEIGER
REMARK  99
REMARK  99

$$$$
CHEMBL4095821
  SciTegic05292516403D

 44 46  0  0  0  0            999 V2000
   14.2354  -12.3610    2.6971 O   0  0
   14.7580  -12.4323    1.3454 S   0  0
   16.1688  -12.6356    1.0787 O   0  0
   10.5262   -9.3158   -0.0692 C   0  0
   10.5580  -10.4883    0.6868 C   0  0
   11.7671  -11.1203    0.9984 C   0  0
   11.7279   -8.7654   -0.5417 C   0  0
   12.9583   -9.3847   -0.2395 C   0  0
   12.9638  -10.5590    0.5160 C   0  0
   14.2891  -10.9520    0.6122 N   0  0
   15.1361  -10.0073    0.0454 C   0  0
   14.3098   -9.0578   -0.5326 C   0  0
   13.8907  -13.7019    0.4591 C   0  0
   13.2465  -14.7150    1.1780 C   0  0
   12.5638  -15.7189    0.4916 C   0  0
   12.5320  -15.7104   -0.9046 C   0  0
   13.1869  -14.7026   -1.6167 C   0  0
   13.8729  -13.6947   -0.9375 C   0  0
   16.6344  -10.0716    0.0985 C   0  0
   17.3420   -8.7717   -0.3019 C   0  0
   18.8574   -8.9300   -0.1724 C   0  0
   19.6166   -7.6694   -0.5232 C   0  0
   19.1166   -6.5857   -0.7768 O   0  0
   20.9574   -7.8720   -0.5122 O   0  0
    9.2146   -8.6730   -0.4159 C   0  0
    9.6294  -10.9244    1.0525 H   0  0
   11.7575  -12.0182    1.6087 H   0  0
   11.7180   -7.8533   -1.1334 H   0  0
   14.6389   -8.1834   -1.0819 H   0  0
   13.2832  -14.7198    2.2648 H   0  0
   12.0556  -16.5102    1.0404 H   0  0
   11.9969  -16.4954   -1.4374 H   0  0
   13.1736  -14.6992   -2.7039 H   0  0
   14.3896  -12.9260   -1.5064 H   0  0
   16.9428  -10.3099    1.1234 H   0  0
   16.9772  -10.8761   -0.5633 H   0  0
   17.0905   -8.5022   -1.3352 H   0  0
   16.9990   -7.9449    0.3328 H   0  0
   19.1155   -9.1991    0.8583 H   0  0
   19.1941   -9.7288   -0.8434 H   0  0
   21.1791   -8.7969   -0.2892 H   0  0
    9.3270   -7.5890   -0.5237 H   0  0
    8.4741   -8.8455    0.3722 H   0  0
    8.8340   -9.0847   -1.3557 H   0  0
  2  1  2  0
  2 13  1  0
  3  2  2  0
  4  5  2  0
  4 25  1  0
  5  6  1  0
  5 26  1  0
  6  9  2  0
  6 27  1  0
  7  4  1  0
  7 28  1  0
  8  7  2  0
  8  9  1  0
  9 10  1  0
 10  2  1  0
 10 11  1  0
 11 12  2  0
 11 19  1  0
 12  8  1  0
 12 29  1  0
 13 14  2  0
 14 15  1  0
 14 30  1  0
 15 16  2  0
 15 31  1  0
 16 17  1  0
 16 32  1  0
 17 18  2  0
 17 33  1  0
 18 13  1  0
 18 34  1  0
 19 20  1  0
 19 35  1  0
 19 36  1  0
 20 21  1  0
 20 37  1  0
 20 38  1  0
 21 22  1  0
 21 39  1  0
 21 40  1  0
 22 23  2  0
 22 24  1  0
 24 41  1  0
 25 42  1  0
 25 43  1  0
 25 44  1  0
M  END
> <Name>
CHEMBL4095821

> <Clean Energy>
35.382

> <chembl_id>
CHEMBL4095821

> <chembl_pref_name>
None

> <efficacy>
0.38

> <Forcefield>
MMFF

> <ForcefieldBase>
MMFF

> <ForcefieldFFML>
<?xml version="1.0" encoding="UTF-8"?>
<!DOCTYPE ffml SYSTEM "Ffml.dtd">
<ffml version="1.0">
<forcefield name="MMFF" derivedFrom="MMFF" base="MMFF">
<atomTypes>
<atomType
name="O100"
element="O"
mass="16"
annotation=""/>
<atomType
name="S101"
element="S"
mass="32.066"
annotation=""/>
<atomType
name="C102"
element="C"
mass="12.011"
annotation=""/>
<atomType
name="N103"
element="N"
mass="14.007"
annotation=""/>
<atomType
name="H104"
element="H"
mass="1.008"
annotation=""/>
</atomTypes>
<parameters>
</parameters>
</forcefield>
</ffml>

> <Initial Potential Energy>
471.07171

> <Initial RMS Gradient>
215.19276

> <Minimization Criteria>
STEEPD> Minimization exiting with gradient tolerance ( 3.0000000) satisfied.

> <CHARMm Energy>
105.32069

> <Potential Energy>
105.32069

> <RMS Gradient>
0.04728

> <Bond Energy>
4.59473

> <Angle Energy>
10.97202

> <STRBend>
0.70842

> <Dihedral Energy>
-7.99931

> <OOPLane>
0.01719

> <Van der Waals Energy>
39.36083

> <Electrostatic Energy>
57.66682

> <Hydrogen Bond Energy>
0

> <Solvation Free Energy>
0

> <HasGasteigerCharges>
true

> <REMARK99>
REMARK  99  MacroMolecule created from Mol2 file
REMARK  99  CHEMBL4095821
REMARK  99  PROTEIN
REMARK  99  GASTEIGER
REMARK  99
REMARK  99

$$$$
CHEMBL1944783
  SciTegic05292516403D

 66 70  0  0  0  0            999 V2000
    9.9830    4.5204    0.3519 C   0  0
    9.7145    3.3506    0.9759 C   0  0
   10.7487    2.3552    1.2232 C   0  0
   11.4008    4.7039   -0.1414 C   0  0
   11.8502    5.8449   -0.2386 O   0  0
    8.9054    5.5514    0.1768 C   0  0
    9.1884    6.7779   -0.6490 C   0  0
    7.7947    5.3799    0.6909 O   0  0
    8.4849    3.0097    1.5078 O   0  0
   12.1525    3.4246   -0.5567 C   0  0  1  0  0  0
   11.8973    2.4019    0.5288 C   0  0
   13.0554    1.6856    0.8509 O   0  0
   11.6361    2.9405   -1.9208 C   0  0
   13.6586    3.4167   -0.5384 C   0  0
   14.1264    2.3386    0.2532 C   0  0
   15.4902    2.0209    0.3605 C   0  0
   16.3768    2.8938   -0.3060 C   0  0
   15.9174    3.9473   -1.1180 C   0  0
   14.5550    4.1935   -1.2434 C   0  0
   14.1024    5.1621   -2.0798 O   0  0
   17.7449    2.7348   -0.2393 O   0  0
   18.2767    3.5862    0.7821 C   0  0
   16.0015    0.8381    1.1459 C   0  0
   15.3364    0.3486    2.0504 O   0  0
   17.2581    0.3577    0.7990 N   0  0
   17.9671   -0.6853    1.5205 C   0  0
   19.2572   -1.0399    0.8108 C   0  0
   21.6811   -1.4756   -0.5224 C   0  0
   21.6277   -0.4932    0.4709 C   0  0
   20.4050   -0.2751    1.1166 C   0  0
   20.5607   -2.2536   -0.8553 C   0  0
   19.3272   -2.0492   -0.1897 C   0  0
   18.2377   -2.8688   -0.5743 C   0  0
   18.3619   -3.8486   -1.5622 C   0  0
   19.5772   -4.0284   -2.2050 C   0  0
   20.6663   -3.2340   -1.8549 C   0  0
   22.8287    0.3644    0.8077 C   0  0
   24.0536   -0.2749    0.4386 O   0  0
   25.1856    0.5027    0.8032 C   0  0
   10.6173    1.6458    2.0344 H   0  0
    8.2417    7.2672   -0.8991 H   0  0
    9.6745    6.5052   -1.5893 H   0  0
    9.8023    7.4789   -0.0787 H   0  0
    7.8380    3.7476    1.3693 H   0  0
   12.0964    1.9909   -2.2203 H   0  0
   11.8538    3.6739   -2.7060 H   0  0
   10.5502    2.7912   -1.9204 H   0  0
   16.6432    4.5483   -1.6592 H   0  0
   14.8625    5.6899   -2.3803 H   0  0
   19.3434    3.3624    0.8784 H   0  0
   17.8016    3.3952    1.7508 H   0  0
   18.1741    4.6412    0.5068 H   0  0
   17.7440    0.8171    0.0356 H   0  0
   18.1781   -0.3040    2.5273 H   0  0
   17.3069   -1.5454    1.6635 H   0  0
   22.6218   -1.6416   -1.0458 H   0  0
   20.3337    0.5091    1.8697 H   0  0
   17.2621   -2.7539   -0.1076 H   0  0
   17.5152   -4.4786   -1.8233 H   0  0
   19.6831   -4.7892   -2.9737 H   0  0
   21.6115   -3.3916   -2.3693 H   0  0
   22.7411    1.3170    0.2722 H   0  0
   22.8432    0.5547    1.8876 H   0  0
   26.0862   -0.0311    0.4881 H   0  0
   25.2230    0.6402    1.8881 H   0  0
   25.1608    1.4743    0.3006 H   0  0
  1  2  2  0
  1  4  1  0
  1  6  1  0
  2  3  1  0
  2  9  1  0
  3 11  2  0
  3 40  1  0
  4  5  2  0
  6  7  1  0
  6  8  2  0
  7 41  1  0
  7 42  1  0
  7 43  1  0
  9 44  1  0
 10  4  1  0
 10 11  1  0
 10 13  1  0
 11 12  1  0
 12 15  1  0
 13 45  1  0
 13 46  1  0
 13 47  1  0
 14 10  1  0
 14 15  2  0
 15 16  1  0
 16 17  2  0
 16 23  1  0
 17 18  1  0
 17 21  1  0
 18 19  2  0
 18 48  1  0
 19 14  1  0
 19 20  1  0
 20 49  1  0
 21 22  1  0
 22 50  1  0
 22 51  1  0
 22 52  1  0
 23 24  2  0
 23 25  1  0
 25 26  1  0
 25 53  1  0
 26 27  1  0
 26 54  1  0
 26 55  1  0
 27 32  2  0
 28 29  1  0
 28 56  1  0
 29 30  2  0
 29 37  1  0
 30 27  1  0
 30 57  1  0
 31 28  2  0
 31 32  1  0
 32 33  1  0
 33 34  2  0
 33 58  1  0
 34 35  1  0
 34 59  1  0
 35 36  2  0
 35 60  1  0
 36 31  1  0
 36 61  1  0
 37 38  1  0
 37 62  1  0
 37 63  1  0
 38 39  1  0
 39 64  1  0
 39 65  1  0
 39 66  1  0
M  END
> <Name>
CHEMBL1944783

> <Clean Energy>
59.076099

> <chembl_id>
CHEMBL1944783

> <chembl_pref_name>
None

> <efficacy>
0.44

> <Forcefield>
MMFF

> <ForcefieldBase>
MMFF

> <ForcefieldFFML>
<?xml version="1.0" encoding="UTF-8"?>
<!DOCTYPE ffml SYSTEM "Ffml.dtd">
<ffml version="1.0">
<forcefield name="MMFF" derivedFrom="MMFF" base="MMFF">
<atomTypes>
<atomType
name="C100"
element="C"
mass="12.011"
annotation=""/>
<atomType
name="O101"
element="O"
mass="16"
annotation=""/>
<atomType
name="N102"
element="N"
mass="14.007"
annotation=""/>
<atomType
name="H103"
element="H"
mass="1.008"
annotation=""/>
</atomTypes>
<parameters>
</parameters>
</forcefield>
</ffml>

> <Initial Potential Energy>
165.55286

> <Initial RMS Gradient>
27.24975

> <Minimization Criteria>
STEEPD> Minimization exiting with gradient tolerance ( 3.0000000) satisfied.

> <CHARMm Energy>
75.25556

> <Potential Energy>
75.25556

> <RMS Gradient>
0.02712

> <Bond Energy>
12.02287

> <Angle Energy>
25.94093

> <STRBend>
0.70778

> <Dihedral Energy>
17.3544

> <OOPLane>
0.38279

> <Van der Waals Energy>
79.12542

> <Electrostatic Energy>
-60.27862

> <Hydrogen Bond Energy>
0

> <Solvation Free Energy>
0

> <HasGasteigerCharges>
true

> <REMARK99>
REMARK  99  MacroMolecule created from Mol2 file
REMARK  99  CHEMBL1944783
REMARK  99  PROTEIN
REMARK  99  GASTEIGER
REMARK  99
REMARK  99

$$$$
CHEMBL4749785
  SciTegic05292516403D

 48 51  0  0  0  0            999 V2000
   16.6750  -25.6983   -0.5869 C   0  0
   16.3790  -27.0386   -0.8356 C   0  0
   17.3866  -28.0056   -0.9684 C   0  0
   18.0017  -25.2849   -0.4255 C   0  0
   19.0260  -26.2384   -0.5324 C   0  0
   18.7086  -27.5671   -0.8018 C   0  0
   19.9313  -28.1987   -0.8517 N   0  0
   20.9147  -27.2610   -0.6082 C   0  0
   20.3804  -26.0685   -0.4184 N   0  0
   20.1448  -29.6038   -1.1048 C   0  0
   22.3822  -27.5569   -0.6030 C   0  0
   22.6164  -28.5471    0.4011 O   0  0
   23.9231  -28.8772    0.6406 C   0  0
   24.1266  -29.7196    1.7396 C   0  0
   25.4080  -30.1494    2.0914 C   0  0
   26.5070  -29.7315    1.3455 C   0  0
   26.3125  -28.8769    0.2550 C   0  0
   25.0233  -28.4618   -0.1089 C   0  0
   27.4530  -28.4207   -0.5699 C   0  0
   28.5199  -28.0445    0.1651 O   0  0
   27.4055  -28.3584   -1.7853 O   0  0
   15.0563  -27.3686   -1.0304 O   0  0
   14.4704  -28.2413   -0.1387 C   0  0
   14.8742  -28.4114    1.1811 C   0  0
   14.1639  -29.3042    1.9626 C   0  0
   13.0974  -30.0088    1.5243 N   0  0
   12.7035  -29.8133    0.2444 C   0  0
   13.3606  -28.9381   -0.6128 C   0  0
   11.5062  -30.5798   -0.2318 C   0  0
   15.8730  -24.9686   -0.5170 H   0  0
   17.1441  -29.0369   -1.1977 H   0  0
   18.2465  -24.2463   -0.2318 H   0  0
   21.0401  -29.7305   -1.7180 H   0  0
   19.2901  -30.0161   -1.6457 H   0  0
   20.2611  -30.1099   -0.1434 H   0  0
   22.6817  -27.9269   -1.5904 H   0  0
   22.9292  -26.6362   -0.3662 H   0  0
   23.2712  -30.0498    2.3267 H   0  0
   25.5459  -30.8179    2.9384 H   0  0
   27.4978  -30.0991    1.6014 H   0  0
   24.9222  -27.8213   -0.9811 H   0  0
   28.3481  -27.9830    1.1237 H   0  0
   15.7058  -27.8653    1.6093 H   0  0
   14.4376  -29.4787    2.9994 H   0  0
   13.0153  -28.7957   -1.6317 H   0  0
   11.7739  -31.2055   -1.0890 H   0  0
   10.7083  -29.8904   -0.5244 H   0  0
   11.1211  -31.2320    0.5587 H   0  0
  1  2  2  0
  1 30  1  0
  2  3  1  0
  2 22  1  0
  3  6  2  0
  3 31  1  0
  4  1  1  0
  4 32  1  0
  5  4  2  0
  5  6  1  0
  6  7  1  0
  7  8  1  0
  7 10  1  0
  8  9  2  0
  8 11  1  0
  9  5  1  0
 10 33  1  0
 10 34  1  0
 10 35  1  0
 11 12  1  0
 11 36  1  0
 11 37  1  0
 12 13  1  0
 13 14  2  0
 14 15  1  0
 14 38  1  0
 15 16  2  0
 15 39  1  0
 16 17  1  0
 16 40  1  0
 17 18  2  0
 17 19  1  0
 18 13  1  0
 18 41  1  0
 19 20  1  0
 19 21  2  0
 20 42  1  0
 22 23  1  0
 23 24  2  0
 24 25  1  0
 24 43  1  0
 25 26  2  0
 25 44  1  0
 26 27  1  0
 27 28  2  0
 27 29  1  0
 28 23  1  0
 28 45  1  0
 29 46  1  0
 29 47  1  0
 29 48  1  0
M  END
> <Name>
CHEMBL4749785

> <Clean Energy>
32.348499

> <chembl_id>
CHEMBL4749785

> <chembl_pref_name>
None

> <efficacy>
0.44

> <Forcefield>
MMFF

> <ForcefieldBase>
MMFF

> <ForcefieldFFML>
<?xml version="1.0" encoding="UTF-8"?>
<!DOCTYPE ffml SYSTEM "Ffml.dtd">
<ffml version="1.0">
<forcefield name="MMFF" derivedFrom="MMFF" base="MMFF">
<atomTypes>
<atomType
name="C100"
element="C"
mass="12.011"
annotation=""/>
<atomType
name="N101"
element="N"
mass="14.007"
annotation=""/>
<atomType
name="O102"
element="O"
mass="16"
annotation=""/>
<atomType
name="H103"
element="H"
mass="1.008"
annotation=""/>
</atomTypes>
<parameters>
</parameters>
</forcefield>
</ffml>

> <Initial Potential Energy>
189.93594

> <Initial RMS Gradient>
46.83191

> <Minimization Criteria>
CONJUG> Minimization exiting with gradient tolerance ( 0.0100000) satisfied.

> <CHARMm Energy>
56.32373

> <Potential Energy>
56.32373

> <RMS Gradient>
0.00983

> <Bond Energy>
4.2618

> <Angle Energy>
16.09748

> <STRBend>
0.27065

> <Dihedral Energy>
10.2091

> <OOPLane>
0.10705

> <Van der Waals Energy>
57.83301

> <Electrostatic Energy>
-32.45536

> <Hydrogen Bond Energy>
0

> <Solvation Free Energy>
0

> <HasGasteigerCharges>
true

> <REMARK99>
REMARK  99  MacroMolecule created from Mol2 file
REMARK  99  CHEMBL4749785
REMARK  99  PROTEIN
REMARK  99  GASTEIGER
REMARK  99
REMARK  99

$$$$
CHEMBL4587597
  SciTegic05292516403D

 50 53  0  0  0  0            999 V2000
    1.1270  -10.9239   -1.2785 C   0  0
    0.9650  -11.8983   -0.2931 C   0  0
    2.0652  -12.4014    0.4151 C   0  0
    2.4001  -10.4216   -1.5760 C   0  0
    3.5162  -10.8963   -0.8634 C   0  0
    3.3325  -11.8761    0.1113 C   0  0
    4.6030  -12.1126    0.6018 N   0  0
    5.4730  -11.2345   -0.0207 C   0  0
    4.8413  -10.5436   -0.9466 N   0  0
    4.9412  -13.0910    1.6327 C   0  0
    6.0554  -14.0238    1.2208 C   0  0
    6.0409  -14.6688   -0.0235 C   0  0
    7.1391  -15.4229   -0.4405 C   0  0
    8.2660  -15.5695    0.3817 C   0  0
    8.2404  -14.9944    1.6598 C   0  0
    7.1471  -14.2308    2.0763 C   0  0
    9.4460  -16.3025   -0.0977 C   0  0
    9.3432  -17.6992   -0.2519 C   0  0
   10.4189  -18.4588   -0.7091 C   0  0
   11.6246  -17.8395   -1.0149 C   0  0
   11.7586  -16.4607   -0.8650 C   0  0
   10.6780  -15.6835   -0.4132 C   0  0
   10.8528  -14.2075   -0.3374 C   0  0
   12.1353  -13.8482   -0.1237 O   0  0
    9.9942  -13.3521   -0.4376 O   0  0
    6.9340  -11.1136    0.2960 C   0  0
    7.5004   -9.7465   -0.0945 C   0  0
    8.9753   -9.6349    0.2590 C   0  0
    2.5862   -9.0927   -2.9091 Br  0  0
    0.2518  -10.5503   -1.8091 H   0  0
   -0.0360  -12.2702   -0.0728 H   0  0
    1.9284  -13.1629    1.1756 H   0  0
    5.2080  -12.5103    2.5234 H   0  0
    4.0539  -13.6851    1.8706 H   0  0
    5.2026  -14.5424   -0.7067 H   0  0
    7.1277  -15.8636   -1.4357 H   0  0
    9.0923  -15.1093    2.3273 H   0  0
    7.1800  -13.7623    3.0577 H   0  0
    8.4082  -18.2043   -0.0134 H   0  0
   10.3092  -19.5330   -0.8282 H   0  0
   12.4617  -18.4265   -1.3791 H   0  0
   12.7086  -15.9954   -1.1210 H   0  0
   12.0553  -12.8694   -0.1052 H   0  0
    7.0957  -11.2626    1.3694 H   0  0
    7.4800  -11.8962   -0.2421 H   0  0
    7.3786   -9.5791   -1.1716 H   0  0
    6.9458   -8.9501    0.4169 H   0  0
    9.3592   -8.6499   -0.0246 H   0  0
    9.5632  -10.3930   -0.2680 H   0  0
    9.1323   -9.7639    1.3347 H   0  0
  1  2  2  0
  1 30  1  0
  2  3  1  0
  2 31  1  0
  3  6  2  0
  3 32  1  0
  4  1  1  0
  4 29  1  0
  5  4  2  0
  5  6  1  0
  6  7  1  0
  7  8  1  0
  7 10  1  0
  8  9  2  0
  8 26  1  0
  9  5  1  0
 10 11  1  0
 10 33  1  0
 10 34  1  0
 11 12  2  0
 12 13  1  0
 12 35  1  0
 13 14  2  0
 13 36  1  0
 14 15  1  0
 14 17  1  0
 15 16  2  0
 15 37  1  0
 16 11  1  0
 16 38  1  0
 17 18  2  0
 18 19  1  0
 18 39  1  0
 19 20  2  0
 19 40  1  0
 20 21  1  0
 20 41  1  0
 21 22  2  0
 21 42  1  0
 22 17  1  0
 22 23  1  0
 23 24  1  0
 23 25  2  0
 24 43  1  0
 26 27  1  0
 26 44  1  0
 26 45  1  0
 27 28  1  0
 27 46  1  0
 27 47  1  0
 28 48  1  0
 28 49  1  0
 28 50  1  0
M  END
> <Name>
CHEMBL4587597

> <Clean Energy>
46.6399

> <chembl_id>
CHEMBL4587597

> <chembl_pref_name>
None

> <efficacy>
0.42640076

> <Forcefield>
MMFF

> <ForcefieldBase>
MMFF

> <ForcefieldFFML>
<?xml version="1.0" encoding="UTF-8"?>
<!DOCTYPE ffml SYSTEM "Ffml.dtd">
<ffml version="1.0">
<forcefield name="MMFF" derivedFrom="MMFF" base="MMFF">
<atomTypes>
<atomType
name="C100"
element="C"
mass="12.011"
annotation=""/>
<atomType
name="N101"
element="N"
mass="14.007"
annotation=""/>
<atomType
name="O102"
element="O"
mass="16"
annotation=""/>
<atomType
name="Br103"
element="Br"
mass="79.904"
annotation=""/>
<atomType
name="H104"
element="H"
mass="1.008"
annotation=""/>
</atomTypes>
<parameters>
</parameters>
</forcefield>
</ffml>

> <Initial Potential Energy>
251.7613

> <Initial RMS Gradient>
37.94476

> <Minimization Criteria>
CONJUG> Minimization exiting with gradient tolerance ( 0.0100000) satisfied.

> <CHARMm Energy>
79.59062

> <Potential Energy>
79.59062

> <RMS Gradient>
0.00961

> <Bond Energy>
7.00455

> <Angle Energy>
10.08073

> <STRBend>
-0.07083

> <Dihedral Energy>
6.06

> <OOPLane>
0.05233

> <Van der Waals Energy>
54.04777

> <Electrostatic Energy>
2.41606

> <Hydrogen Bond Energy>
0

> <Solvation Free Energy>
0

> <HasGasteigerCharges>
true

> <REMARK99>
REMARK  99  MacroMolecule created from Mol2 file
REMARK  99  CHEMBL4587597
REMARK  99  PROTEIN
REMARK  99  GASTEIGER
REMARK  99
REMARK  99

$$$$
CHEMBL182583
  SciTegic05292516403D

 42 43  0  0  0  0            999 V2000
    5.2324    0.4212    0.6252 C   0  0
    4.8295   -0.9961    0.6944 C   0  0
    4.3901    1.3356    0.1135 C   0  0
    3.0692    0.9382   -0.3175 C   0  0
    2.6714   -0.3336   -0.1840 C   0  0
    3.5525   -1.3187    0.3194 O   0  0
    6.5598    0.7948    1.1491 C   0  0
    1.3166   -0.8199   -0.5231 C   0  0
    5.6275   -1.8576    1.0565 O   0  0
    4.7521    3.0365   -0.0037 S   0  0
    6.7605    1.1676    2.2947 O   0  0
    1.1187   -2.1357   -0.9717 C   0  0
    0.1849   -0.0046   -0.3564 C   0  0
    7.4857    0.6689    0.1635 O   0  0
   -1.2815   -1.8164   -1.0104 C   0  0
   -1.1022   -0.4929   -0.6101 C   0  0
   -0.1698   -2.6263   -1.2252 C   0  0
   -5.6417   -2.7873    1.2811 S   0  0
   -2.5143   -2.3871   -1.2070 O   0  0
    5.5546    3.0897   -1.6262 C   0  0
   -4.4702   -3.1535   -0.0610 C   0  0
   -6.6177   -4.3073    1.2024 C   0  0
   -3.4410   -2.0374   -0.1687 C   0  0
    8.8155    0.9891    0.5816 C   0  0
    2.4105    1.7011   -0.7226 H   0  0
    1.9665   -2.8026   -1.1171 H   0  0
    0.2796    1.0178    0.0023 H   0  0
   -1.9533    0.1687   -0.4731 H   0  0
   -0.3050   -3.6530   -1.5565 H   0  0
    5.8293    4.1225   -1.8564 H   0  0
    4.8725    2.7307   -2.4018 H   0  0
    6.4615    2.4804   -1.6337 H   0  0
   -3.9658   -4.1054    0.1379 H   0  0
   -5.0100   -3.2603   -1.0080 H   0  0
   -7.4060   -4.2688    1.9588 H   0  0
   -5.9861   -5.1765    1.4031 H   0  0
   -7.0844   -4.4097    0.2192 H   0  0
   -3.9311   -1.0939   -0.4384 H   0  0
   -2.9282   -1.9244    0.7968 H   0  0
    8.8760    2.0374    0.8901 H   0  0
    9.4831    0.8392   -0.2713 H   0  0
    9.1329    0.3256    1.3921 H   0  0
  2  1  1  0
  3  1  2  0
  4  3  1  0
  4 25  1  0
  5  4  2  0
  5  6  1  0
  6  2  1  0
  7  1  1  0
  8  5  1  0
  9  2  2  0
 10  3  1  0
 11  7  2  0
 12  8  1  0
 12 26  1  0
 13  8  2  0
 13 27  1  0
 14  7  1  0
 15 16  2  0
 15 17  1  0
 16 13  1  0
 16 28  1  0
 17 12  2  0
 17 29  1  0
 18 21  1  0
 19 15  1  0
 20 10  1  0
 20 30  1  0
 20 31  1  0
 20 32  1  0
 21 23  1  0
 21 33  1  0
 21 34  1  0
 22 18  1  0
 22 35  1  0
 22 36  1  0
 22 37  1  0
 23 19  1  0
 23 38  1  0
 23 39  1  0
 24 14  1  0
 24 40  1  0
 24 41  1  0
 24 42  1  0
M  END
> <Name>
CHEMBL182583

> <Clean Energy>
25.2043

> <chembl_id>
CHEMBL182583

> <chembl_pref_name>
None

> <efficacy>
0.44

> <Forcefield>
MMFF

> <ForcefieldBase>
MMFF

> <ForcefieldFFML>
<?xml version="1.0" encoding="UTF-8"?>
<!DOCTYPE ffml SYSTEM "Ffml.dtd">
<ffml version="1.0">
<forcefield name="MMFF" derivedFrom="MMFF" base="MMFF">
<atomTypes>
<atomType
name="C100"
element="C"
mass="12.011"
annotation=""/>
<atomType
name="O101"
element="O"
mass="16"
annotation=""/>
<atomType
name="S102"
element="S"
mass="32.066"
annotation=""/>
<atomType
name="H103"
element="H"
mass="1.008"
annotation=""/>
</atomTypes>
<parameters>
</parameters>
</forcefield>
</ffml>

> <Initial Potential Energy>
122.22873

> <Initial RMS Gradient>
23.27021

> <Minimization Criteria>
CONJUG> Minimization exiting with gradient tolerance ( 0.0100000) satisfied.

> <CHARMm Energy>
32.68195

> <Potential Energy>
32.68195

> <RMS Gradient>
0.00955

> <Bond Energy>
3.27534

> <Angle Energy>
17.09358

> <STRBend>
0.07332

> <Dihedral Energy>
20.50023

> <OOPLane>
0.04204

> <Van der Waals Energy>
41.3942

> <Electrostatic Energy>
-49.69676

> <Hydrogen Bond Energy>
0

> <Solvation Free Energy>
0

> <HasGasteigerCharges>
true

> <REMARK99>
REMARK  99  MacroMolecule created from Mol2 file
REMARK  99  CHEMBL182583
REMARK  99  PROTEIN
REMARK  99  GASTEIGER
REMARK  99
REMARK  99

$$$$
CHEMBL4592935
  SciTegic05292516403D

 67 70  0  0  0  0            999 V2000
    4.6820  -12.2806   -0.3331 N   0  0
    4.6402  -13.5280   -0.6832 C   0  0
    5.6996  -14.1918   -1.2807 N   0  0
    6.7587  -13.4292   -1.7364 C   0  0
    6.9206  -12.0882   -1.1257 C   0  0
    5.8651  -11.5977   -0.4522 C   0  0
    5.8777  -10.2566    0.2778 C   0  0
    4.9913   -9.2382   -0.4428 C   0  0
    5.4487  -10.4026    1.7429 C   0  0
    7.5485  -13.8042   -2.6027 O   0  0
    8.2583  -11.4469   -1.3433 C   0  0
    9.2853  -12.0061   -0.3705 C   0  0
   10.3052  -11.1348   -0.1408 O   0  0
    9.2523  -13.1163    0.1457 O   0  0
    3.3510  -14.3055   -0.4356 C   0  0
    2.2606  -13.5037    0.2770 C   0  0
    1.0036  -14.3457    0.4937 C   0  0
   -0.0810  -13.5533    1.2061 C   0  0
    5.6619  -15.6071   -1.7260 C   0  0
    6.6889  -16.5664   -1.1167 C   0  0
    7.4266  -17.4389   -1.9433 C   0  0
    8.3751  -18.3505   -1.4214 C   0  0
    8.6224  -18.4332   -0.0461 C   0  0
    7.8289  -17.6052    0.7813 C   0  0
    6.8820  -16.6914    0.2615 C   0  0
    9.8460  -19.0951    0.4978 C   0  0
   10.1526  -20.4785    0.6161 C   0  0
   11.4010  -20.8549    1.1921 C   0  0
   12.3505  -19.9215    1.6065 C   0  0
   12.0748  -18.5754    1.4644 C   0  0
   10.8495  -18.1775    0.9247 C   0  0
    9.2581  -21.6127    0.2351 C   0  0
    7.9871  -21.5768    0.0089 N   0  0
    7.6019  -22.9497   -0.2396 O   0  0
    8.7401  -23.7107   -0.1183 C   0  0
    9.7573  -22.8680    0.1234 N   0  0
    8.8179  -24.9303   -0.1962 O   0  0
    6.8915   -9.8450    0.3047 H   0  0
    5.0460   -8.2621    0.0515 H   0  0
    3.9406   -9.5489   -0.4517 H   0  0
    5.3135   -9.1042   -1.4813 H   0  0
    5.5562   -9.4482    2.2700 H   0  0
    6.0702  -11.1415    2.2607 H   0  0
    4.4021  -10.7137    1.8345 H   0  0
    8.6259  -11.6099   -2.3623 H   0  0
    8.1931  -10.3623   -1.2183 H   0  0
   10.2440  -10.3011   -0.6442 H   0  0
    2.9720  -14.6482   -1.4059 H   0  0
    3.5964  -15.1903    0.1636 H   0  0
    2.6356  -13.1477    1.2447 H   0  0
    2.0076  -12.6143   -0.3136 H   0  0
    0.6185  -14.6950   -0.4714 H   0  0
    1.2479  -15.2347    1.0869 H   0  0
   -0.9714  -14.1734    1.3493 H   0  0
   -0.3701  -12.6727    0.6237 H   0  0
    0.2610  -13.2175    2.1903 H   0  0
    4.6779  -16.0501   -1.5559 H   0  0
    5.7987  -15.5930   -2.8155 H   0  0
    7.3007  -17.3958   -3.0245 H   0  0
    8.9664  -18.9431   -2.1162 H   0  0
    7.9924  -17.6150    1.8587 H   0  0
    6.3293  -16.0605    0.9542 H   0  0
   11.6676  -21.8952    1.3672 H   0  0
   13.2908  -20.2586    2.0427 H   0  0
   12.7996  -17.8270    1.7751 H   0  0
   10.6678  -17.1043    0.8250 H   0  0
   10.6889  -23.2358    0.2226 H   0  0
  1  2  2  0
  1  6  1  0
  2  3  1  0
  2 15  1  0
  3  4  1  0
  3 19  1  0
  4  5  1  0
  4 10  2  0
  5  6  2  0
  5 11  1  0
  6  7  1  0
  7  8  1  0
  7  9  1  0
  7 38  1  0
  8 39  1  0
  8 40  1  0
  8 41  1  0
  9 42  1  0
  9 43  1  0
  9 44  1  0
 11 12  1  0
 11 45  1  0
 11 46  1  0
 12 13  1  0
 12 14  2  0
 13 47  1  0
 15 16  1  0
 15 48  1  0
 15 49  1  0
 16 17  1  0
 16 50  1  0
 16 51  1  0
 17 18  1  0
 17 52  1  0
 17 53  1  0
 18 54  1  0
 18 55  1  0
 18 56  1  0
 19 20  1  0
 19 57  1  0
 19 58  1  0
 20 21  2  0
 21 22  1  0
 21 59  1  0
 22 23  2  0
 22 60  1  0
 23 24  1  0
 23 26  1  0
 24 25  2  0
 24 61  1  0
 25 20  1  0
 25 62  1  0
 26 27  2  0
 27 28  1  0
 27 32  1  0
 28 29  2  0
 28 63  1  0
 29 30  1  0
 29 64  1  0
 30 31  2  0
 30 65  1  0
 31 26  1  0
 31 66  1  0
 32 33  2  0
 33 34  1  0
 34 35  1  0
 35 36  1  0
 35 37  2  0
 36 32  1  0
 36 67  1  0
M  END
> <Name>
CHEMBL4592935

> <Clean Energy>
58.5714

> <chembl_id>
CHEMBL4592935

> <chembl_pref_name>
None

> <efficacy>
0.018993352

> <Forcefield>
MMFF

> <ForcefieldBase>
MMFF

> <ForcefieldFFML>
<?xml version="1.0" encoding="UTF-8"?>
<!DOCTYPE ffml SYSTEM "Ffml.dtd">
<ffml version="1.0">
<forcefield name="MMFF" derivedFrom="MMFF" base="MMFF">
<atomTypes>
<atomType
name="N100"
element="N"
mass="14.007"
annotation=""/>
<atomType
name="C101"
element="C"
mass="12.011"
annotation=""/>
<atomType
name="O102"
element="O"
mass="16"
annotation=""/>
<atomType
name="H103"
element="H"
mass="1.008"
annotation=""/>
</atomTypes>
<parameters>
</parameters>
</forcefield>
</ffml>

> <Initial Potential Energy>
143.49213

> <Initial RMS Gradient>
27.24764

> <Minimization Criteria>
CONJUG> Minimization exiting with gradient tolerance ( 0.0100000) satisfied.

> <CHARMm Energy>
-14.04517

> <Potential Energy>
-14.04517

> <RMS Gradient>
0.00992

> <Bond Energy>
12.79582

> <Angle Energy>
26.93822

> <STRBend>
1.30307

> <Dihedral Energy>
-2.34012

> <OOPLane>
0.60455

> <Van der Waals Energy>
64.55979

> <Electrostatic Energy>
-117.90651

> <Hydrogen Bond Energy>
0

> <Solvation Free Energy>
0

> <HasGasteigerCharges>
true

> <REMARK99>
REMARK  99  MacroMolecule created from Mol2 file
REMARK  99  CHEMBL4592935
REMARK  99  PROTEIN
REMARK  99  GASTEIGER
REMARK  99
REMARK  99

$$$$
CHEMBL4072395
  SciTegic05292516403D

 45 47  0  0  0  0            999 V2000
   22.4934  -27.4818   -2.4657 O   0  0
   22.8494  -27.8193   -1.1001 S   0  0
   24.1865  -28.2420   -0.7320 O   0  0
   18.9630  -24.5557    0.8565 C   0  0
   18.8421  -25.6273   -0.0191 C   0  0
   19.9725  -26.3136   -0.4738 C   0  0
   20.2196  -24.1173    1.2805 C   0  0
   21.3747  -24.7875    0.8246 C   0  0
   21.2370  -25.8961   -0.0182 C   0  0
   22.5176  -26.3895   -0.2131 N   0  0
   23.4692  -25.4892    0.2549 C   0  0
   22.7673  -24.5565    1.0010 C   0  0
   21.7448  -29.0807   -0.5124 C   0  0
   21.0904  -29.8943   -1.4454 C   0  0
   20.2181  -30.8974   -1.0092 C   0  0
   20.0032  -31.0949    0.3566 C   0  0
   20.6709  -30.2814    1.2802 C   0  0
   21.5482  -29.2771    0.8550 C   0  0
   24.9445  -25.5898   -0.0243 C   0  0
   25.7019  -24.2642    0.1451 C   0  0
   27.1574  -24.4013   -0.2993 C   0  0
   27.9487  -23.1394   -0.0479 C   0  0
   28.7215  -22.9938    0.8870 O   0  0
   27.7277  -22.1681   -0.9617 O   0  0
   17.5420  -23.7512    1.4098 Cl  0  0
   19.1832  -32.0348    0.9149 O   0  0
   18.5261  -32.9317    0.0269 C   0  0
   17.8609  -25.9420   -0.3619 H   0  0
   19.8469  -27.1392   -1.1680 H   0  0
   20.3102  -23.2592    1.9404 H   0  0
   23.2035  -23.7362    1.5602 H   0  0
   21.2631  -29.7506   -2.5106 H   0  0
   19.7220  -31.5123   -1.7559 H   0  0
   20.5121  -30.4409    2.3456 H   0  0
   22.0672  -28.6751    1.5965 H   0  0
   25.3838  -26.3418    0.6418 H   0  0
   25.0917  -25.9213   -1.0589 H   0  0
   25.2145  -23.4733   -0.4393 H   0  0
   25.6677  -23.9418    1.1934 H   0  0
   27.6491  -25.2141    0.2485 H   0  0
   27.2296  -24.6585   -1.3624 H   0  0
   27.0915  -22.4166   -1.6588 H   0  0
   17.9344  -33.6264    0.6308 H   0  0
   19.2496  -33.5206   -0.5465 H   0  0
   17.8380  -32.3960   -0.6353 H   0  0
  2  1  2  0
  2 13  1  0
  3  2  2  0
  4  5  2  0
  4 25  1  0
  5  6  1  0
  5 28  1  0
  6  9  2  0
  6 29  1  0
  7  4  1  0
  7 30  1  0
  8  7  2  0
  8  9  1  0
  9 10  1  0
 10  2  1  0
 10 11  1  0
 11 12  2  0
 11 19  1  0
 12  8  1  0
 12 31  1  0
 13 14  2  0
 14 15  1  0
 14 32  1  0
 15 16  2  0
 15 33  1  0
 16 17  1  0
 16 26  1  0
 17 18  2  0
 17 34  1  0
 18 13  1  0
 18 35  1  0
 19 20  1  0
 19 36  1  0
 19 37  1  0
 20 21  1  0
 20 38  1  0
 20 39  1  0
 21 22  1  0
 21 40  1  0
 21 41  1  0
 22 23  2  0
 22 24  1  0
 24 42  1  0
 26 27  1  0
 27 43  1  0
 27 44  1  0
 27 45  1  0
M  END
> <Name>
CHEMBL4072395

> <Clean Energy>
36.233501

> <chembl_id>
CHEMBL4072395

> <chembl_pref_name>
None

> <efficacy>
0.25

> <Forcefield>
MMFF

> <ForcefieldBase>
MMFF

> <ForcefieldFFML>
<?xml version="1.0" encoding="UTF-8"?>
<!DOCTYPE ffml SYSTEM "Ffml.dtd">
<ffml version="1.0">
<forcefield name="MMFF" derivedFrom="MMFF" base="MMFF">
<atomTypes>
<atomType
name="O100"
element="O"
mass="16"
annotation=""/>
<atomType
name="S101"
element="S"
mass="32.066"
annotation=""/>
<atomType
name="C102"
element="C"
mass="12.011"
annotation=""/>
<atomType
name="N103"
element="N"
mass="14.007"
annotation=""/>
<atomType
name="Cl104"
element="Cl"
mass="35.453"
annotation=""/>
<atomType
name="H105"
element="H"
mass="1.008"
annotation=""/>
</atomTypes>
<parameters>
</parameters>
</forcefield>
</ffml>

> <Initial Potential Energy>
565.64905

> <Initial RMS Gradient>
287.10546

> <Minimization Criteria>
STEEPD> Minimization exiting with gradient tolerance ( 3.0000000) satisfied.

> <CHARMm Energy>
106.74254

> <Potential Energy>
106.74254

> <RMS Gradient>
0.03982

> <Bond Energy>
4.71473

> <Angle Energy>
17.59798

> <STRBend>
0.69244

> <Dihedral Energy>
-5.08375

> <OOPLane>
0.07157

> <Van der Waals Energy>
41.56294

> <Electrostatic Energy>
47.18661

> <Hydrogen Bond Energy>
0

> <Solvation Free Energy>
0

> <HasGasteigerCharges>
true

> <REMARK99>
REMARK  99  MacroMolecule created from Mol2 file
REMARK  99  CHEMBL4072395
REMARK  99  PROTEIN
REMARK  99  GASTEIGER
REMARK  99
REMARK  99

$$$$
CHEMBL4074391
  SciTegic05292516403D

 38 40  0  0  0  0            999 V2000
    4.8228   -4.3437   -2.4201 O   0  0
    5.0431   -4.3233   -0.9862 S   0  0
    6.3509   -4.5234   -0.3977 O   0  0
    0.6711   -1.1431   -0.5455 C   0  0
    0.8247   -2.3307   -1.2496 C   0  0
    2.0680   -2.9675   -1.3210 C   0  0
    1.7633   -0.5439    0.0889 C   0  0
    3.0299   -1.1658    0.0228 C   0  0
    3.1621   -2.3791   -0.6587 C   0  0
    4.4794   -2.7799   -0.4867 N   0  0
    5.2330   -1.7756    0.1100 C   0  0
    4.3200   -0.8095    0.5060 C   0  0
    3.9566   -5.4960   -0.2154 C   0  0
    3.6952   -5.4084    1.1556 C   0  0
    2.8282   -6.3294    1.7454 C   0  0
    2.2362   -7.3307    0.9723 C   0  0
    2.5134   -7.4221   -0.3924 C   0  0
    3.3791   -6.5068   -0.9910 C   0  0
    6.7334   -1.8094    0.2724 C   0  0
    7.3590   -0.4224    0.4508 C   0  0
    8.8682   -0.4957    0.5509 C   0  0
    9.4627    0.6983    0.3152 O   0  0
    9.5043   -1.4952    0.8437 O   0  0
   -0.8869   -0.4023   -0.4652 Cl  0  0
   -0.0263   -2.7789   -1.7555 H   0  0
    2.1616   -3.8896   -1.8881 H   0  0
    1.6423    0.3954    0.6208 H   0  0
    4.5546    0.0974    1.0501 H   0  0
    4.1633   -4.6451    1.7723 H   0  0
    2.6165   -6.2753    2.8111 H   0  0
    1.5648   -8.0490    1.4379 H   0  0
    2.0591   -8.2114   -0.9871 H   0  0
    3.5956   -6.5886   -2.0544 H   0  0
    6.9830   -2.4411    1.1334 H   0  0
    7.1883   -2.2570   -0.6189 H   0  0
    7.0942    0.2029   -0.4103 H   0  0
    6.9896    0.0602    1.3623 H   0  0
    8.8276    1.4045    0.0938 H   0  0
  2  1  2  0
  2 13  1  0
  3  2  2  0
  4  5  2  0
  4 24  1  0
  5  6  1  0
  5 25  1  0
  6  9  2  0
  6 26  1  0
  7  4  1  0
  7 27  1  0
  8  7  2  0
  8  9  1  0
  9 10  1  0
 10  2  1  0
 10 11  1  0
 11 12  2  0
 11 19  1  0
 12  8  1  0
 12 28  1  0
 13 14  2  0
 14 15  1  0
 14 29  1  0
 15 16  2  0
 15 30  1  0
 16 17  1  0
 16 31  1  0
 17 18  2  0
 17 32  1  0
 18 13  1  0
 18 33  1  0
 19 20  1  0
 19 34  1  0
 19 35  1  0
 20 21  1  0
 20 36  1  0
 20 37  1  0
 21 22  1  0
 21 23  2  0
 22 38  1  0
M  END
> <Name>
CHEMBL4074391

> <Clean Energy>
35.726898

> <chembl_id>
CHEMBL4074391

> <chembl_pref_name>
None

> <efficacy>
0.43

> <Forcefield>
MMFF

> <ForcefieldBase>
MMFF

> <ForcefieldFFML>
<?xml version="1.0" encoding="UTF-8"?>
<!DOCTYPE ffml SYSTEM "Ffml.dtd">
<ffml version="1.0">
<forcefield name="MMFF" derivedFrom="MMFF" base="MMFF">
<atomTypes>
<atomType
name="O100"
element="O"
mass="16"
annotation=""/>
<atomType
name="S101"
element="S"
mass="32.066"
annotation=""/>
<atomType
name="C102"
element="C"
mass="12.011"
annotation=""/>
<atomType
name="N103"
element="N"
mass="14.007"
annotation=""/>
<atomType
name="Cl104"
element="Cl"
mass="35.453"
annotation=""/>
<atomType
name="H105"
element="H"
mass="1.008"
annotation=""/>
</atomTypes>
<parameters>
</parameters>
</forcefield>
</ffml>

> <Initial Potential Energy>
471.79423

> <Initial RMS Gradient>
233.19002

> <Minimization Criteria>
CONJUG> Minimization exiting with gradient tolerance ( 0.0100000) satisfied.

> <CHARMm Energy>
103.41562

> <Potential Energy>
103.41562

> <RMS Gradient>
0.00939

> <Bond Energy>
4.51731

> <Angle Energy>
10.267

> <STRBend>
0.81767

> <Dihedral Energy>
-5.22432

> <OOPLane>
0.03078

> <Van der Waals Energy>
36.04125

> <Electrostatic Energy>
56.96591

> <Hydrogen Bond Energy>
0

> <Solvation Free Energy>
0

> <HasGasteigerCharges>
true

> <REMARK99>
REMARK  99  MacroMolecule created from Mol2 file
REMARK  99  CHEMBL4074391
REMARK  99  PROTEIN
REMARK  99  GASTEIGER
REMARK  99
REMARK  99

$$$$
CHEMBL207570
  SciTegic05292516403D

 56 59  0  0  0  0            999 V2000
    2.4555   -5.7386   -0.4571 C   0  0
    7.9700    2.4046   -0.0038 C   0  0
    1.6419    0.7156   -0.0482 C   0  0
    1.5615   -0.6820   -0.1470 C   0  0
    2.7145   -1.4784   -0.1702 C   0  0
    3.9666   -0.8458   -0.1139 C   0  0
    4.0904    0.5526   -0.0393 C   0  0
    2.9100    1.3170   -0.0068 C   0  0
    5.4190    1.1948   -0.0171 C   0  0
    2.6210   -2.9391   -0.2659 C   0  0
    6.4302    0.7511    0.8531 C   0  0
    7.6943    1.3493    0.8606 C   0  0
    6.9831    2.8647   -0.8720 C   0  0
    5.7203    2.2648   -0.8778 C   0  0
    2.1848   -3.5536   -1.4498 C   0  0
    2.0996   -4.9439   -1.5443 C   0  0
    2.8904   -5.1471    0.7264 C   0  0
    2.9732   -3.7556    0.8204 C   0  0
    0.3967    1.5826   -0.0587 C   0  0
   -0.7163    0.8685    0.4824 O   0  0
   -1.9458    1.4613    0.4146 C   0  0
   -2.2119    2.7737    0.0280 C   0  0
   -3.5345    3.2622    0.0096 C   0  0
   -4.5969    2.4200    0.3858 C   0  0
   -4.3238    1.1078    0.7784 C   0  0
   -3.0068    0.6379    0.7925 C   0  0
   -5.8497    2.9805    0.3470 O   0  0
   -6.9521    2.0979    0.5771 C   0  0
   -8.2517    2.8757    0.4279 C   0  0
   -8.0677    4.1998    0.1964 O   0  0
   -9.3643    2.3753    0.5164 O   0  0
   -3.7914    4.6852   -0.4072 C   0  0
    2.3898   -6.8205   -0.5312 H   0  0
    8.9519    2.8708    0.0007 H   0  0
    0.5795   -1.1556   -0.1963 H   0  0
    4.8646   -1.4610   -0.1595 H   0  0
    2.9870    2.4016    0.0585 H   0  0
    6.2382   -0.0676    1.5440 H   0  0
    8.4604    0.9913    1.5433 H   0  0
    7.1963    3.6902   -1.5473 H   0  0
    4.9691    2.6321   -1.5750 H   0  0
    1.9219   -2.9476   -2.3138 H   0  0
    1.7551   -5.4058   -2.4661 H   0  0
    3.1591   -5.7692    1.5766 H   0  0
    3.3083   -3.3057    1.7527 H   0  0
    0.5780    2.4744    0.5529 H   0  0
    0.1975    1.8689   -1.0989 H   0  0
   -1.4122    3.4497   -0.2572 H   0  0
   -5.1048    0.4215    1.0890 H   0  0
   -2.8027   -0.3847    1.1041 H   0  0
   -6.9594    1.2975   -0.1705 H   0  0
   -6.9213    1.7139    1.6021 H   0  0
   -7.1040    4.3897    0.1594 H   0  0
   -2.8665    5.1944   -0.6975 H   0  0
   -4.2349    5.2467    0.4214 H   0  0
   -4.4670    4.7120   -1.2682 H   0  0
  1 17  1  0
  1 33  1  0
  2 13  1  0
  2 34  1  0
  3  4  2  0
  3 19  1  0
  4  5  1  0
  4 35  1  0
  5  6  2  0
  5 10  1  0
  6  7  1  0
  6 36  1  0
  7  8  2  0
  7  9  1  0
  8  3  1  0
  8 37  1  0
  9 11  2  0
 10 15  2  0
 11 12  1  0
 11 38  1  0
 12  2  2  0
 12 39  1  0
 13 14  2  0
 13 40  1  0
 14  9  1  0
 14 41  1  0
 15 16  1  0
 15 42  1  0
 16  1  2  0
 16 43  1  0
 17 18  2  0
 17 44  1  0
 18 10  1  0
 18 45  1  0
 19 20  1  0
 19 46  1  0
 19 47  1  0
 20 21  1  0
 21 22  2  0
 22 23  1  0
 22 48  1  0
 23 24  2  0
 23 32  1  0
 24 25  1  0
 24 27  1  0
 25 26  2  0
 25 49  1  0
 26 21  1  0
 26 50  1  0
 27 28  1  0
 28 29  1  0
 28 51  1  0
 28 52  1  0
 29 30  1  0
 29 31  2  0
 30 53  1  0
 32 54  1  0
 32 55  1  0
 32 56  1  0
M  END
> <Name>
CHEMBL207570

> <Clean Energy>
-5.19281

> <chembl_id>
CHEMBL207570

> <chembl_pref_name>
None

> <efficacy>
0.3

> <Forcefield>
MMFF

> <ForcefieldBase>
MMFF

> <ForcefieldFFML>
<?xml version="1.0" encoding="UTF-8"?>
<!DOCTYPE ffml SYSTEM "Ffml.dtd">
<ffml version="1.0">
<forcefield name="MMFF" derivedFrom="MMFF" base="MMFF">
<atomTypes>
<atomType
name="C100"
element="C"
mass="12.011"
annotation=""/>
<atomType
name="O101"
element="O"
mass="16"
annotation=""/>
<atomType
name="H102"
element="H"
mass="1.008"
annotation=""/>
</atomTypes>
<parameters>
</parameters>
</forcefield>
</ffml>

> <Initial Potential Energy>
191.0369

> <Initial RMS Gradient>
31.64608

> <Minimization Criteria>
STEEPD> Minimization exiting with gradient tolerance ( 3.0000000) satisfied.

> <CHARMm Energy>
94.93387

> <Potential Energy>
94.93387

> <RMS Gradient>
0.08315

> <Bond Energy>
8.3635

> <Angle Energy>
14.9166

> <STRBend>
-0.78982

> <Dihedral Energy>
9.3034

> <OOPLane>
0.03385

> <Van der Waals Energy>
76.06743

> <Electrostatic Energy>
-12.96109

> <Hydrogen Bond Energy>
0

> <Solvation Free Energy>
0

> <HasGasteigerCharges>
true

> <REMARK99>
REMARK  99  MacroMolecule created from Mol2 file
REMARK  99  CHEMBL207570
REMARK  99  PROTEIN
REMARK  99  GASTEIGER
REMARK  99
REMARK  99

$$$$
CHEMBL4062724
  SciTegic05292516403D

 44 46  0  0  0  0            999 V2000
   26.1576  -20.3723   -0.5885 O   0  0
   25.0725  -20.1324    0.3439 S   0  0
   25.2729  -20.1042    1.7799 O   0  0
   20.7919  -16.7389    0.5355 C   0  0
   20.9660  -17.9720    1.1730 C   0  0
   22.1576  -18.6957    1.0623 C   0  0
   21.8349  -16.2085   -0.2372 C   0  0
   23.0551  -16.8992   -0.3288 C   0  0
   23.1953  -18.1423    0.2965 C   0  0
   24.4672  -18.5796   -0.0295 N   0  0
   25.2254  -17.5153   -0.5002 C   0  0
   24.3092  -16.5553   -0.8928 C   0  0
   23.8021  -21.3248   -0.0357 C   0  0
   23.1551  -21.3174   -1.2773 C   0  0
   22.1709  -22.2809   -1.5484 C   0  0
   21.8462  -23.2439   -0.5889 C   0  0
   22.5025  -23.2558    0.6420 C   0  0
   23.4847  -22.3006    0.9202 C   0  0
   26.7261  -17.4477   -0.5178 C   0  0
   27.2158  -16.0265   -0.1748 C   0  0
   28.7298  -15.9431   -0.0440 C   0  0
   19.5043  -15.9707    0.6666 C   0  0
   29.1877  -14.5421    0.2998 C   0  0
   29.6037  -14.1997    1.3965 O   0  0
   29.1574  -13.6889   -0.7511 O   0  0
   19.6901  -14.6240    0.7499 F   0  0
   18.6725  -16.1694   -0.3962 F   0  0
   18.7771  -16.3157    1.7670 F   0  0
   20.6383  -24.4187   -0.9282 Cl  0  0
   20.1672  -18.3794    1.7901 H   0  0
   22.2640  -19.6342    1.5980 H   0  0
   21.7235  -15.2376   -0.7172 H   0  0
   24.5423  -15.6148   -1.3772 H   0  0
   23.4104  -20.5855   -2.0403 H   0  0
   21.6594  -22.2888   -2.5103 H   0  0
   22.2550  -24.0123    1.3849 H   0  0
   23.9997  -22.3221    1.8797 H   0  0
   27.1488  -18.1373    0.2205 H   0  0
   27.0939  -17.7432   -1.5069 H   0  0
   26.8805  -15.3220   -0.9461 H   0  0
   26.7571  -15.6911    0.7651 H   0  0
   29.0817  -16.6139    0.7487 H   0  0
   29.2305  -16.2599   -0.9660 H   0  0
   28.7084  -14.0660   -1.5315 H   0  0
  2  1  2  0
  2 13  1  0
  3  2  2  0
  4  5  2  0
  4 22  1  0
  5  6  1  0
  5 30  1  0
  6  9  2  0
  6 31  1  0
  7  4  1  0
  7 32  1  0
  8  7  2  0
  8  9  1  0
  9 10  1  0
 10  2  1  0
 10 11  1  0
 11 12  2  0
 11 19  1  0
 12  8  1  0
 12 33  1  0
 13 14  2  0
 14 15  1  0
 14 34  1  0
 15 16  2  0
 15 35  1  0
 16 17  1  0
 16 29  1  0
 17 18  2  0
 17 36  1  0
 18 13  1  0
 18 37  1  0
 19 20  1  0
 19 38  1  0
 19 39  1  0
 20 21  1  0
 20 40  1  0
 20 41  1  0
 21 23  1  0
 21 42  1  0
 21 43  1  0
 22 26  1  0
 22 27  1  0
 22 28  1  0
 23 24  2  0
 23 25  1  0
 25 44  1  0
M  END
> <Name>
CHEMBL4062724

> <Clean Energy>
48.252499

> <chembl_id>
CHEMBL4062724

> <chembl_pref_name>
None

> <efficacy>
0.36

> <Forcefield>
MMFF

> <ForcefieldBase>
MMFF

> <ForcefieldFFML>
<?xml version="1.0" encoding="UTF-8"?>
<!DOCTYPE ffml SYSTEM "Ffml.dtd">
<ffml version="1.0">
<forcefield name="MMFF" derivedFrom="MMFF" base="MMFF">
<atomTypes>
<atomType
name="O100"
element="O"
mass="16"
annotation=""/>
<atomType
name="S101"
element="S"
mass="32.066"
annotation=""/>
<atomType
name="C102"
element="C"
mass="12.011"
annotation=""/>
<atomType
name="N103"
element="N"
mass="14.007"
annotation=""/>
<atomType
name="F104"
element="F"
mass="18.998"
annotation=""/>
<atomType
name="Cl105"
element="Cl"
mass="35.453"
annotation=""/>
<atomType
name="H106"
element="H"
mass="1.008"
annotation=""/>
</atomTypes>
<parameters>
</parameters>
</forcefield>
</ffml>

> <Initial Potential Energy>
651.24893

> <Initial RMS Gradient>
347.33004

> <Minimization Criteria>
CONJUG> Minimization exiting with gradient tolerance ( 0.0100000) satisfied.

> <CHARMm Energy>
128.86285

> <Potential Energy>
128.86285

> <RMS Gradient>
0.00991

> <Bond Energy>
4.81099

> <Angle Energy>
11.36535

> <STRBend>
0.72615

> <Dihedral Energy>
-1.34235

> <OOPLane>
0.21399

> <Van der Waals Energy>
36.99451

> <Electrostatic Energy>
76.09421

> <Hydrogen Bond Energy>
0

> <Solvation Free Energy>
0

> <HasGasteigerCharges>
true

> <REMARK99>
REMARK  99  MacroMolecule created from Mol2 file
REMARK  99  CHEMBL4062724
REMARK  99  PROTEIN
REMARK  99  GASTEIGER
REMARK  99
REMARK  99

$$$$
CHEMBL4866406
  SciTegic05292516403D

 35 37  0  0  0  0            999 V2000
    8.7875  -28.6744    0.7997 C   0  0
   10.0823  -28.2849    0.4334 C   0  0
   10.3071  -27.1530   -0.3581 C   0  0
    9.2131  -26.3895   -0.8054 C   0  0
    7.7221  -27.8820    0.3584 C   0  0
    7.9062  -26.7533   -0.4310 C   0  0
    6.6214  -26.1966   -0.6658 C   0  0
    5.6704  -26.9701   -0.0163 C   0  0
    6.3689  -28.0023    0.5758 N   0  0
   11.7124  -26.7050   -0.6848 C   0  0
   12.1171  -25.5413    0.2162 C   0  0
   13.4710  -24.9968   -0.1486 C   0  0
   13.7532  -23.8493    0.5151 O   0  0
   14.2552  -25.5066   -0.9322 O   0  0
    4.2073  -26.8080    0.0558 C   0  0
    3.4084  -27.2156    1.1429 C   0  0
    2.0260  -26.9873    1.1396 C   0  0
    1.4201  -26.3620    0.0551 C   0  0
    2.1826  -25.9586   -1.0334 C   0  0
    3.5603  -26.1824   -1.0309 C   0  0
    4.0300  -28.0070    2.5533 Cl  0  0
   -0.2796  -26.0930    0.0591 Cl  0  0
    8.6250  -29.5530    1.4157 H   0  0
   10.9229  -28.8808    0.7844 H   0  0
    9.3685  -25.5076   -1.4208 H   0  0
    6.4217  -25.2989   -1.2362 H   0  0
    5.9456  -28.7300    1.1350 H   0  0
   12.4138  -27.5408   -0.5689 H   0  0
   11.7619  -26.4148   -1.7422 H   0  0
   11.3905  -24.7253    0.1222 H   0  0
   12.1460  -25.8628    1.2637 H   0  0
   13.0286  -23.5607    1.1043 H   0  0
    1.4168  -27.3007    1.9850 H   0  0
    1.7087  -25.4770   -1.8863 H   0  0
    4.1367  -25.8632   -1.8984 H   0  0
  1  2  2  0
  1 23  1  0
  2  3  1  0
  2 24  1  0
  3  4  2  0
  3 10  1  0
  4  6  1  0
  4 25  1  0
  5  1  1  0
  5  6  2  0
  6  7  1  0
  7  8  2  0
  7 26  1  0
  8  9  1  0
  8 15  1  0
  9  5  1  0
  9 27  1  0
 10 11  1  0
 10 28  1  0
 10 29  1  0
 11 12  1  0
 11 30  1  0
 11 31  1  0
 12 13  1  0
 12 14  2  0
 13 32  1  0
 15 16  2  0
 16 17  1  0
 16 21  1  0
 17 18  2  0
 17 33  1  0
 18 19  1  0
 18 22  1  0
 19 20  2  0
 19 34  1  0
 20 15  1  0
 20 35  1  0
M  END
> <Name>
CHEMBL4866406

> <Clean Energy>
20.294201

> <chembl_id>
CHEMBL4866406

> <chembl_pref_name>
None

> <efficacy>
0.0539

> <Forcefield>
MMFF

> <ForcefieldBase>
MMFF

> <ForcefieldFFML>
<?xml version="1.0" encoding="UTF-8"?>
<!DOCTYPE ffml SYSTEM "Ffml.dtd">
<ffml version="1.0">
<forcefield name="MMFF" derivedFrom="MMFF" base="MMFF">
<atomTypes>
<atomType
name="C100"
element="C"
mass="12.011"
annotation=""/>
<atomType
name="N101"
element="N"
mass="14.007"
annotation=""/>
<atomType
name="O102"
element="O"
mass="16"
annotation=""/>
<atomType
name="Cl103"
element="Cl"
mass="35.453"
annotation=""/>
<atomType
name="H104"
element="H"
mass="1.008"
annotation=""/>
</atomTypes>
<parameters>
</parameters>
</forcefield>
</ffml>

> <Initial Potential Energy>
71.93128

> <Initial RMS Gradient>
34.18809

> <Minimization Criteria>
CONJUG> Minimization exiting with gradient tolerance ( 0.0100000) satisfied.

> <CHARMm Energy>
8.71456

> <Potential Energy>
8.71456

> <RMS Gradient>
0.00775

> <Bond Energy>
4.45715

> <Angle Energy>
4.07456

> <STRBend>
-0.508

> <Dihedral Energy>
-1.4874

> <OOPLane>
0.01905

> <Van der Waals Energy>
37.48416

> <Electrostatic Energy>
-35.32497

> <Hydrogen Bond Energy>
0

> <Solvation Free Energy>
0

> <HasGasteigerCharges>
true

> <REMARK99>
REMARK  99  MacroMolecule created from Mol2 file
REMARK  99  CHEMBL4866406
REMARK  99  PROTEIN
REMARK  99  GASTEIGER
REMARK  99
REMARK  99

$$$$
CHEMBL1173118
  SciTegic05292516403D

 45 47  0  0  0  0            999 V2000
    1.6069   -7.7193   -0.2017 C   0  0
    2.7097   -8.4548   -0.3390 N   0  0
    2.5575   -9.7859   -0.5130 C   0  0
    1.3089  -10.3832   -0.5799 C   0  0
    0.2195   -9.5403   -0.4099 C   0  0
    0.3697   -8.2208   -0.1990 N   0  0
    1.1237  -11.8315   -0.8008 C   0  0
    0.1762  -12.3913   -0.0107 O   0  0
    1.7466  -12.4740   -1.6269 O   0  0
   -1.0727  -10.0504   -0.3479 N   0  0
   -2.1494   -9.1475    0.0477 C   0  0
   -3.4127   -9.9536    0.2717 C   0  0
   -3.7098  -10.4505    1.5408 C   0  0
   -4.8430  -11.2393    1.7024 C   0  0
   -5.6384  -11.5175    0.5980 C   0  0
   -5.2763  -10.9912   -0.6290 C   0  0
   -4.1787  -10.2263   -0.8179 N   0  0
    1.8322   -5.9811    0.0572 S   0  0
    4.0787  -10.7222   -0.5298 S   0  0
    5.3034   -9.4116   -0.1930 C   0  0
    6.6752  -10.0075   -0.0093 C   0  0
    7.1378  -10.3307    1.2753 C   0  0
    8.3891  -10.9162    1.4412 C   0  0
    9.1762  -11.1912    0.3243 C   0  0
    8.7181  -10.8876   -0.9568 C   0  0
    7.4712  -10.2962   -1.1252 C   0  0
    0.1809   -5.3753   -0.3715 C   0  0
   -0.3702  -11.7448    0.4891 H   0  0
   -1.3532  -10.6900   -1.0950 H   0  0
   -1.9039   -8.6069    0.9706 H   0  0
   -2.3340   -8.4058   -0.7392 H   0  0
   -3.0660  -10.2364    2.3885 H   0  0
   -5.1108  -11.6382    2.6780 H   0  0
   -6.5232  -12.1343    0.6916 H   0  0
   -5.8754  -11.1805   -1.5163 H   0  0
    5.3202   -8.6945   -1.0219 H   0  0
    5.0266   -8.8610    0.7135 H   0  0
    6.5065  -10.1414    2.1416 H   0  0
    8.7589  -11.1684    2.4330 H   0  0
   10.1493  -11.6545    0.4522 H   0  0
    9.3325  -11.1217   -1.8221 H   0  0
    7.1060  -10.0801   -2.1272 H   0  0
    0.1812   -4.2827   -0.3285 H   0  0
   -0.5656   -5.7446    0.3373 H   0  0
   -0.0927   -5.6792   -1.3859 H   0  0
  1  2  1  0
  1  6  2  0
  1 18  1  0
  2  3  2  0
  3  4  1  0
  3 19  1  0
  4  5  2  0
  4  7  1  0
  5  6  1  0
  5 10  1  0
  7  8  1  0
  7  9  2  0
  8 28  1  0
 10 11  1  0
 10 29  1  0
 11 12  1  0
 11 30  1  0
 11 31  1  0
 12 13  1  0
 12 17  2  0
 13 14  2  0
 13 32  1  0
 14 15  1  0
 14 33  1  0
 15 16  2  0
 15 34  1  0
 16 17  1  0
 16 35  1  0
 18 27  1  0
 19 20  1  0
 20 21  1  0
 20 36  1  0
 20 37  1  0
 21 22  1  0
 21 26  2  0
 22 23  2  0
 22 38  1  0
 23 24  1  0
 23 39  1  0
 24 25  2  0
 24 40  1  0
 25 26  1  0
 25 41  1  0
 26 42  1  0
 27 43  1  0
 27 44  1  0
 27 45  1  0
M  END
> <Name>
CHEMBL1173118

> <Clean Energy>
-3.87397

> <chembl_id>
CHEMBL1173118

> <chembl_pref_name>
None

> <efficacy>
0.35

> <Forcefield>
MMFF

> <ForcefieldBase>
MMFF

> <ForcefieldFFML>
<?xml version="1.0" encoding="UTF-8"?>
<!DOCTYPE ffml SYSTEM "Ffml.dtd">
<ffml version="1.0">
<forcefield name="MMFF" derivedFrom="MMFF" base="MMFF">
<atomTypes>
<atomType
name="C100"
element="C"
mass="12.011"
annotation=""/>
<atomType
name="N101"
element="N"
mass="14.007"
annotation=""/>
<atomType
name="O102"
element="O"
mass="16"
annotation=""/>
<atomType
name="S103"
element="S"
mass="32.066"
annotation=""/>
<atomType
name="H104"
element="H"
mass="1.008"
annotation=""/>
</atomTypes>
<parameters>
</parameters>
</forcefield>
</ffml>

> <Initial Potential Energy>
81.03753

> <Initial RMS Gradient>
34.1816

> <Minimization Criteria>
CONJUG> Minimization exiting with gradient tolerance ( 0.0100000) satisfied.

> <CHARMm Energy>
-20.09395

> <Potential Energy>
-20.09395

> <RMS Gradient>
0.00895

> <Bond Energy>
3.17797

> <Angle Energy>
11.38501

> <STRBend>
0.55116

> <Dihedral Energy>
10.4351

> <OOPLane>
2.55291

> <Van der Waals Energy>
56.44313

> <Electrostatic Energy>
-104.63923

> <Hydrogen Bond Energy>
0

> <Solvation Free Energy>
0

> <HasGasteigerCharges>
true

> <REMARK99>
REMARK  99  MacroMolecule created from Mol2 file
REMARK  99  CHEMBL1173118
REMARK  99  PROTEIN
REMARK  99  GASTEIGER
REMARK  99
REMARK  99

$$$$
CHEMBL2042811
  SciTegic05292516403D

 62 66  0  0  0  0            999 V2000
   18.2789  -14.4885   -1.2627 O   0  0
   17.1169  -13.7213   -1.1820 C   0  0
   17.4019  -12.3539   -0.6271 C   0  0  2  0  0  0
   18.7341  -12.6320    0.0130 C   0  0
   19.2484  -13.8430   -0.5043 C   0  0
   20.5528  -14.2875   -0.2454 C   0  0
   21.3399  -13.4628    0.5996 C   0  0
   20.7949  -12.2895    1.1656 C   0  0
   19.5000  -11.8766    0.8697 C   0  0
   19.0672  -10.7257    1.4448 O   0  0
   22.6312  -13.8543    0.8776 O   0  0
   23.5442  -12.8344    1.2707 C   0  0
   21.0776  -15.5493   -0.8953 C   0  0
   22.3325  -15.9772   -0.5126 N   0  0
   23.0063  -17.1376   -1.0551 C   0  0
   24.3128  -17.3528   -0.3186 C   0  0
   25.4827  -16.6169   -0.6921 C   0  0
   26.6773  -16.8160    0.0418 C   0  0
   26.6802  -17.6924    1.1332 C   0  0
   25.5304  -18.3781    1.5154 C   0  0
   24.3382  -18.2124    0.8088 C   0  0
   23.1064  -18.9405    1.2846 C   0  0
   27.8444  -16.1202   -0.3185 C   0  0
   27.8472  -15.1961   -1.3565 C   0  0
   26.6830  -14.9687   -2.0751 C   0  0
   25.5202  -15.6715   -1.7492 C   0  0
   28.9948  -16.3336    0.3458 F   0  0
   20.4213  -16.1544   -1.7353 O   0  0
   16.2401  -11.9199    0.2703 C   0  0
   14.8463  -12.2985   -0.1643 C   0  0
   14.7348  -13.3745   -0.9774 C   0  0
   15.8750  -14.1905   -1.3580 C   0  0
   13.5457  -13.8642   -1.4755 O   0  0
   13.6156  -11.5348    0.2325 C   0  0
   13.7520  -10.2786    1.0501 C   0  0
   12.5028  -11.9314   -0.1279 O   0  0
   16.4131  -11.1896    1.2499 O   0  0
   17.5679  -11.3159   -1.7493 C   0  0
   21.3678  -11.6722    1.8516 H   0  0
   18.0889  -10.7463    1.5238 H   0  0
   24.5541  -13.2496    1.1960 H   0  0
   23.3808  -12.5484    2.3142 H   0  0
   23.4930  -11.9658    0.6055 H   0  0
   22.8143  -15.4334    0.1956 H   0  0
   22.3346  -17.9983   -0.9767 H   0  0
   23.1550  -16.9972   -2.1306 H   0  0
   27.5896  -17.8335    1.7126 H   0  0
   25.5825  -19.0427    2.3764 H   0  0
   23.2961  -19.4771    2.2207 H   0  0
   22.7908  -19.6791    0.5412 H   0  0
   22.2925  -18.2349    1.4784 H   0  0
   28.7589  -14.6606   -1.5964 H   0  0
   26.6795  -14.2512   -2.8918 H   0  0
   24.6257  -15.4504   -2.3306 H   0  0
   15.7024  -15.2073   -1.6987 H   0  0
   12.7859  -13.3084   -1.1671 H   0  0
   14.4600   -9.5917    0.5797 H   0  0
   14.0575  -10.5248    2.0697 H   0  0
   12.7817   -9.7739    1.0956 H   0  0
   17.8556  -10.3395   -1.3406 H   0  0
   16.6354  -11.1675   -2.3067 H   0  0
   18.3395  -11.6085   -2.4722 H   0  0
  1  2  1  0
  2  3  1  0
  2 32  2  0
  3  4  1  0
  3 29  1  0
  3 38  1  0
  4  5  2  0
  4  9  1  0
  5  1  1  0
  5  6  1  0
  6  7  2  0
  6 13  1  0
  7  8  1  0
  7 11  1  0
  8  9  2  0
  8 39  1  0
  9 10  1  0
 10 40  1  0
 11 12  1  0
 12 41  1  0
 12 42  1  0
 12 43  1  0
 13 14  1  0
 13 28  2  0
 14 15  1  0
 14 44  1  0
 15 16  1  0
 15 45  1  0
 15 46  1  0
 16 21  1  0
 17 16  2  0
 17 26  1  0
 18 17  1  0
 18 23  1  0
 19 18  2  0
 19 47  1  0
 20 19  1  0
 20 21  2  0
 20 48  1  0
 21 22  1  0
 22 49  1  0
 22 50  1  0
 22 51  1  0
 23 24  2  0
 23 27  1  0
 24 25  1  0
 24 52  1  0
 25 26  2  0
 25 53  1  0
 26 54  1  0
 29 30  1  0
 29 37  2  0
 30 31  2  0
 30 34  1  0
 31 32  1  0
 31 33  1  0
 32 55  1  0
 33 56  1  0
 34 35  1  0
 34 36  2  0
 35 57  1  0
 35 58  1  0
 35 59  1  0
 38 60  1  0
 38 61  1  0
 38 62  1  0
M  END
> <Name>
CHEMBL2042811

> <Clean Energy>
63.671902

> <chembl_id>
CHEMBL2042811

> <chembl_pref_name>
None

> <efficacy>
0.367924528

> <Forcefield>
MMFF

> <ForcefieldBase>
MMFF

> <ForcefieldFFML>
<?xml version="1.0" encoding="UTF-8"?>
<!DOCTYPE ffml SYSTEM "Ffml.dtd">
<ffml version="1.0">
<forcefield name="MMFF" derivedFrom="MMFF" base="MMFF">
<atomTypes>
<atomType
name="O100"
element="O"
mass="16"
annotation=""/>
<atomType
name="C101"
element="C"
mass="12.011"
annotation=""/>
<atomType
name="N102"
element="N"
mass="14.007"
annotation=""/>
<atomType
name="F103"
element="F"
mass="18.998"
annotation=""/>
<atomType
name="H104"
element="H"
mass="1.008"
annotation=""/>
</atomTypes>
<parameters>
</parameters>
</forcefield>
</ffml>

> <Initial Potential Energy>
293.82051

> <Initial RMS Gradient>
74.51105

> <Minimization Criteria>
STEEPD> Minimization exiting with gradient tolerance ( 3.0000000) satisfied.

> <CHARMm Energy>
67.40364

> <Potential Energy>
67.40364

> <RMS Gradient>
0.05332

> <Bond Energy>
11.64675

> <Angle Energy>
29.76226

> <STRBend>
0.62937

> <Dihedral Energy>
6.71747

> <OOPLane>
0.55636

> <Van der Waals Energy>
83.07641

> <Electrostatic Energy>
-64.98498

> <Hydrogen Bond Energy>
0

> <Solvation Free Energy>
0

> <HasGasteigerCharges>
true

> <REMARK99>
REMARK  99  MacroMolecule created from Mol2 file
REMARK  99  CHEMBL2042811
REMARK  99  PROTEIN
REMARK  99  GASTEIGER
REMARK  99
REMARK  99

$$$$
CHEMBL2204701
  SciTegic05292516403D

 58 60  0  0  0  0            999 V2000
   34.2797   -2.0714    0.1272 C   0  0
   33.2456   -3.2220    0.0343 C   0  0
   35.4950   -2.2178    0.0907 O   0  0
   33.7165   -0.8429    0.2558 O   0  0
   31.9655   -2.5640    0.1353 O   0  0
   30.7643   -3.2041    0.1174 C   0  0
   30.5243   -4.5636   -0.0311 C   0  0
   29.2134   -5.0602   -0.0328 C   0  0
   28.1077   -4.2090    0.1098 C   0  0
   28.3535   -2.8439    0.2714 C   0  0
   29.6658   -2.3521    0.2690 C   0  0
   26.7257   -4.8254    0.1150 C   0  0
   25.5284   -3.8780   -0.0191 C   0  0
   24.3383   -4.6734   -0.0849 O   0  0
   23.1502   -4.0107   -0.2237 C   0  0
   22.0279   -4.8380   -0.3286 C   0  0
   20.7427   -4.2981   -0.4751 C   0  0
   20.5730   -2.9108   -0.5114 C   0  0
   21.7000   -2.0820   -0.4192 C   0  0
   22.9799   -2.6280   -0.2706 C   0  0
   19.2443   -2.2607   -0.6873 C   0  0
   18.0313   -2.9743   -0.1971 C   0  0
   16.8170   -2.4758   -0.4805 C   0  0
   19.1751   -1.1466   -1.1981 O   0  0
   15.5430   -3.0607   -0.0367 C   0  0
   15.3488   -4.4416    0.0947 C   0  0
   14.1040   -4.9508    0.4781 C   0  0
   13.0370   -4.0874    0.7231 C   0  0
   13.2129   -2.7130    0.5842 C   0  0
   14.4583   -2.2043    0.2026 C   0  0
   33.4714   -3.8708   -1.3341 C   0  0
   33.5355   -4.1372    1.2273 C   0  0
   32.7386   -0.9451    0.2662 H   0  0
   31.3205   -5.2876   -0.1484 H   0  0
   29.0586   -6.1318   -0.1507 H   0  0
   27.5426   -2.1328    0.4027 H   0  0
   29.8228   -1.2820    0.3898 H   0  0
   26.6681   -5.5555   -0.7041 H   0  0
   26.6096   -5.4042    1.0409 H   0  0
   25.4814   -3.2167    0.8546 H   0  0
   25.6291   -3.2838   -0.9355 H   0  0
   22.1529   -5.9193   -0.3065 H   0  0
   19.9025   -4.9779   -0.5849 H   0  0
   21.5771   -1.0002   -0.4635 H   0  0
   23.8146   -1.9401   -0.1995 H   0  0
   18.1633   -3.8577    0.4124 H   0  0
   16.7291   -1.5593   -1.0641 H   0  0
   16.1509   -5.1425   -0.1168 H   0  0
   13.9652   -6.0248    0.5749 H   0  0
   12.0689   -4.4858    1.0157 H   0  0
   12.3819   -2.0360    0.7680 H   0  0
   14.5736   -1.1274    0.0955 H   0  0
   32.8490   -4.7524   -1.4969 H   0  0
   34.5130   -4.1866   -1.4622 H   0  0
   33.2328   -3.1650   -2.1385 H   0  0
   32.9109   -5.0321    1.2399 H   0  0
   33.3481   -3.6099    2.1702 H   0  0
   34.5784   -4.4739    1.2324 H   0  0
  1  2  1  0
  1  3  2  0
  1  4  1  0
  2  5  1  0
  2 31  1  0
  2 32  1  0
  4 33  1  0
  5  6  1  0
  6  7  1  0
  6 11  2  0
  7  8  2  0
  7 34  1  0
  8  9  1  0
  8 35  1  0
  9 10  2  0
  9 12  1  0
 10 11  1  0
 10 36  1  0
 11 37  1  0
 12 13  1  0
 12 38  1  0
 12 39  1  0
 13 14  1  0
 13 40  1  0
 13 41  1  0
 14 15  1  0
 15 16  1  0
 15 20  2  0
 16 17  2  0
 16 42  1  0
 17 18  1  0
 17 43  1  0
 18 19  2  0
 18 21  1  0
 19 20  1  0
 19 44  1  0
 20 45  1  0
 21 22  1  0
 21 24  2  0
 22 23  2  0
 22 46  1  0
 23 25  1  0
 23 47  1  0
 25 26  1  0
 25 30  2  0
 26 27  2  0
 26 48  1  0
 27 28  1  0
 27 49  1  0
 28 29  2  0
 28 50  1  0
 29 30  1  0
 29 51  1  0
 30 52  1  0
 31 53  1  0
 31 54  1  0
 31 55  1  0
 32 56  1  0
 32 57  1  0
 32 58  1  0
M  END
> <Name>
CHEMBL2204701

> <Clean Energy>
19.7307

> <chembl_id>
CHEMBL2204701

> <chembl_pref_name>
None

> <efficacy>
0.199430199

> <Forcefield>
MMFF

> <ForcefieldBase>
MMFF

> <ForcefieldFFML>
<?xml version="1.0" encoding="UTF-8"?>
<!DOCTYPE ffml SYSTEM "Ffml.dtd">
<ffml version="1.0">
<forcefield name="MMFF" derivedFrom="MMFF" base="MMFF">
<atomTypes>
<atomType
name="C100"
element="C"
mass="12.011"
annotation=""/>
<atomType
name="O101"
element="O"
mass="16"
annotation=""/>
<atomType
name="H102"
element="H"
mass="1.008"
annotation=""/>
</atomTypes>
<parameters>
</parameters>
</forcefield>
</ffml>

> <Initial Potential Energy>
179.19932

> <Initial RMS Gradient>
28.38681

> <Minimization Criteria>
STEEPD> Minimization exiting with gradient tolerance ( 3.0000000) satisfied.

> <CHARMm Energy>
110.60104

> <Potential Energy>
110.60104

> <RMS Gradient>
0.04286

> <Bond Energy>
7.08088

> <Angle Energy>
27.6901

> <STRBend>
0.79067

> <Dihedral Energy>
3.92788

> <OOPLane>
0.05421

> <Van der Waals Energy>
71.73726

> <Electrostatic Energy>
-0.67996

> <Hydrogen Bond Energy>
0

> <Solvation Free Energy>
0

> <HasGasteigerCharges>
true

> <REMARK99>
REMARK  99  MacroMolecule created from Mol2 file
REMARK  99  CHEMBL2204701
REMARK  99  PROTEIN
REMARK  99  GASTEIGER
REMARK  99
REMARK  99

$$$$
CHEMBL4857550
  SciTegic05292516403D

 38 40  0  0  0  0            999 V2000
    7.9512  -12.2863   -1.8712 C   0  0
    9.2460  -11.7770   -1.7095 C   0  0
    9.5122  -10.7318   -0.8182 C   0  0
    8.4612  -10.1681   -0.0731 C   0  0
    6.9318  -11.7234   -1.0956 C   0  0
    7.1596  -10.6820   -0.2013 C   0  0
    5.9202  -10.3808    0.4189 C   0  0
    4.9558  -11.2210   -0.1045 C   0  0
    5.5900  -12.0221   -1.0283 N   0  0
   10.9205  -10.2291   -0.6117 C   0  0
   11.4411  -10.6529    0.7597 C   0  0
   12.7931  -10.0606    1.0374 C   0  0
   13.1391  -10.1545    2.3441 O   0  0
   13.5346   -9.5672    0.2031 O   0  0
    3.5284  -11.3255    0.1913 C   0  0
    2.6635  -10.2151    0.0995 C   0  0
    1.3135  -10.3726    0.4497 C   0  0
    0.8240  -11.6151    0.8539 C   0  0
    1.6710  -12.7159    0.9308 C   0  0
    3.0172  -12.5694    0.6021 C   0  0
    3.1497   -8.8558   -0.3306 C   0  0
   -1.0036  -11.8032    1.3043 Br  0  0
    7.7559  -13.0961   -2.5665 H   0  0
   10.0539  -12.2153   -2.2930 H   0  0
    8.6460   -9.3493    0.6166 H   0  0
    5.7521   -9.6295    1.1793 H   0  0
    5.1315  -12.7286   -1.5856 H   0  0
   11.5809  -10.6082   -1.4017 H   0  0
   10.9270   -9.1359   -0.7103 H   0  0
   10.7555  -10.3106    1.5437 H   0  0
   11.5214  -11.7441    0.8214 H   0  0
   12.4455  -10.5694    2.8938 H   0  0
    0.6363   -9.5219    0.3993 H   0  0
    1.2902  -13.6832    1.2502 H   0  0
    3.6870  -13.4226    0.6977 H   0  0
    2.3107   -8.2090   -0.6107 H   0  0
    3.7948   -8.9281   -1.2119 H   0  0
    3.6894   -8.3688    0.4870 H   0  0
  1  2  2  0
  1 23  1  0
  2  3  1  0
  2 24  1  0
  3  4  2  0
  3 10  1  0
  4  6  1  0
  4 25  1  0
  5  1  1  0
  5  6  2  0
  6  7  1  0
  7  8  2  0
  7 26  1  0
  8  9  1  0
  8 15  1  0
  9  5  1  0
  9 27  1  0
 10 11  1  0
 10 28  1  0
 10 29  1  0
 11 12  1  0
 11 30  1  0
 11 31  1  0
 12 13  1  0
 12 14  2  0
 13 32  1  0
 15 16  2  0
 16 17  1  0
 16 21  1  0
 17 18  2  0
 17 33  1  0
 18 19  1  0
 18 22  1  0
 19 20  2  0
 19 34  1  0
 20 15  1  0
 20 35  1  0
 21 36  1  0
 21 37  1  0
 21 38  1  0
M  END
> <Name>
CHEMBL4857550

> <Clean Energy>
24.466299

> <chembl_id>
CHEMBL4857550

> <chembl_pref_name>
None

> <efficacy>
0.3056

> <Forcefield>
MMFF

> <ForcefieldBase>
MMFF

> <ForcefieldFFML>
<?xml version="1.0" encoding="UTF-8"?>
<!DOCTYPE ffml SYSTEM "Ffml.dtd">
<ffml version="1.0">
<forcefield name="MMFF" derivedFrom="MMFF" base="MMFF">
<atomTypes>
<atomType
name="C100"
element="C"
mass="12.011"
annotation=""/>
<atomType
name="N101"
element="N"
mass="14.007"
annotation=""/>
<atomType
name="O102"
element="O"
mass="16"
annotation=""/>
<atomType
name="Br103"
element="Br"
mass="79.904"
annotation=""/>
<atomType
name="H104"
element="H"
mass="1.008"
annotation=""/>
</atomTypes>
<parameters>
</parameters>
</forcefield>
</ffml>

> <Initial Potential Energy>
63.42276

> <Initial RMS Gradient>
31.96535

> <Minimization Criteria>
CONJUG> Minimization exiting with gradient tolerance ( 0.0100000) satisfied.

> <CHARMm Energy>
8.31103

> <Potential Energy>
8.31103

> <RMS Gradient>
0.00974

> <Bond Energy>
4.17767

> <Angle Energy>
2.88294

> <STRBend>
-0.61963

> <Dihedral Energy>
1.42885

> <OOPLane>
0.03268

> <Van der Waals Energy>
38.01352

> <Electrostatic Energy>
-37.605

> <Hydrogen Bond Energy>
0

> <Solvation Free Energy>
0

> <HasGasteigerCharges>
true

> <REMARK99>
REMARK  99  MacroMolecule created from Mol2 file
REMARK  99  CHEMBL4857550
REMARK  99  PROTEIN
REMARK  99  GASTEIGER
REMARK  99
REMARK  99

$$$$
CHEMBL4281564
  SciTegic05292516403D

 59 64  0  0  0  0            999 V2000
   19.3416   -4.8390   -2.1627 C   0  0
   20.5209   -4.0374   -2.0698 O   0  0
   20.4519   -6.3974   -0.1243 C   0  0
   19.1591   -5.7382    0.1705 C   0  0
   18.6074   -4.9487   -0.8485 C   0  0
   17.4199   -4.2510   -0.6075 C   0  0
   16.7915   -4.3164    0.6487 C   0  0
   17.3415   -5.1359    1.6456 C   0  0
   18.5274   -5.8327    1.4139 C   0  0
   21.5857   -4.4658   -1.3180 C   0  0
   21.6316   -5.5405   -0.4090 C   0  0
   22.8084   -5.7515    0.3368 C   0  0
   23.9313   -4.9469    0.1517 C   0  0
   23.8911   -3.9084   -0.7691 C   0  0
   22.7232   -3.6657   -1.4905 C   0  0
   20.5124   -7.7400   -0.2992 C   0  0
   19.2912   -8.5430   -0.1045 C   0  0
   21.6795   -8.5476   -0.7923 C   0  0
   15.5680   -3.4781    0.9463 C   0  0
   15.7979   -2.0732    0.6328 N   0  0
   18.2766   -8.6534   -0.8860 N   0  0
   17.4027   -9.5691   -0.2150 O   0  0
   18.0472   -9.9277    0.9423 C   0  0
   19.1987   -9.2487    1.0184 N   0  0
   17.6669  -10.7650    1.7472 O   0  0
   15.7241   -0.1463   -0.4643 N   0  0
   15.1580   -1.3317   -0.3419 C   0  0
   16.7114   -0.0992    0.4834 C   0  0
   16.7599   -1.2761    1.2174 C   0  0
   17.6745   -1.4739    2.2604 C   0  0
   18.5666   -0.4318    2.5391 C   0  0
   18.5390    0.7556    1.8093 C   0  0
   17.6114    0.9346    0.7767 C   0  0
   14.0032   -1.8397   -1.1476 C   0  0
   13.4054   -0.7760   -2.0556 C   0  0
   18.6932   -4.3522   -2.9011 H   0  0
   19.5748   -5.8233   -2.5892 H   0  0
   17.0110   -3.6135   -1.3903 H   0  0
   16.8725   -5.2049    2.6250 H   0  0
   18.9640   -6.4225    2.2147 H   0  0
   22.8547   -6.5399    1.0847 H   0  0
   24.8310   -5.1221    0.7346 H   0  0
   24.7621   -3.2770   -0.9144 H   0  0
   22.6889   -2.8339   -2.1903 H   0  0
   21.3411   -9.3632   -1.4419 H   0  0
   22.2181   -8.9895    0.0521 H   0  0
   22.3828   -7.9570   -1.3863 H   0  0
   14.7201   -3.8543    0.3673 H   0  0
   15.2945   -3.5190    2.0072 H   0  0
   19.8522   -9.3245    1.7746 H   0  0
   17.7141   -2.3981    2.8246 H   0  0
   19.2994   -0.5638    3.3320 H   0  0
   19.2388    1.5558    2.0401 H   0  0
   17.5777    1.8563    0.2061 H   0  0
   14.3352   -2.6856   -1.7604 H   0  0
   13.2202   -2.2030   -0.4717 H   0  0
   12.5653   -1.1907   -2.6216 H   0  0
   14.1455   -0.4047   -2.7726 H   0  0
   13.0371    0.0778   -1.4766 H   0  0
  1  2  1  0
  1  5  1  0
  1 36  1  0
  1 37  1  0
  2 10  1  0
  3 16  2  0
  4  3  1  0
  4  5  2  0
  5  6  1  0
  6  7  2  0
  6 38  1  0
  7  8  1  0
  7 19  1  0
  8  9  2  0
  8 39  1  0
  9  4  1  0
  9 40  1  0
 10 11  2  0
 11  3  1  0
 11 12  1  0
 12 13  2  0
 12 41  1  0
 13 14  1  0
 13 42  1  0
 14 15  2  0
 14 43  1  0
 15 10  1  0
 15 44  1  0
 16 17  1  0
 16 18  1  0
 17 21  2  0
 18 45  1  0
 18 46  1  0
 18 47  1  0
 19 20  1  0
 19 48  1  0
 19 49  1  0
 20 29  1  0
 21 22  1  0
 22 23  1  0
 23 24  1  0
 23 25  2  0
 24 17  1  0
 24 50  1  0
 26 27  2  0
 27 20  1  0
 27 34  1  0
 28 26  1  0
 28 29  2  0
 29 30  1  0
 30 31  2  0
 30 51  1  0
 31 32  1  0
 31 52  1  0
 32 33  2  0
 32 53  1  0
 33 28  1  0
 33 54  1  0
 34 35  1  0
 34 55  1  0
 34 56  1  0
 35 57  1  0
 35 58  1  0
 35 59  1  0
M  END
> <Name>
CHEMBL4281564

> <Clean Energy>
121.466003

> <chembl_id>
CHEMBL4281564

> <chembl_pref_name>
None

> <efficacy>
0.092117759

> <Forcefield>
MMFF

> <ForcefieldBase>
MMFF

> <ForcefieldFFML>
<?xml version="1.0" encoding="UTF-8"?>
<!DOCTYPE ffml SYSTEM "Ffml.dtd">
<ffml version="1.0">
<forcefield name="MMFF" derivedFrom="MMFF" base="MMFF">
<atomTypes>
<atomType
name="C100"
element="C"
mass="12.011"
annotation=""/>
<atomType
name="O101"
element="O"
mass="16"
annotation=""/>
<atomType
name="N102"
element="N"
mass="14.007"
annotation=""/>
<atomType
name="H103"
element="H"
mass="1.008"
annotation=""/>
</atomTypes>
<parameters>
</parameters>
</forcefield>
</ffml>

> <Initial Potential Energy>
524.47257

> <Initial RMS Gradient>
123.95355

> <Minimization Criteria>
STEEPD> Minimization exiting with gradient tolerance ( 3.0000000) satisfied.

> <CHARMm Energy>
76.64357

> <Potential Energy>
76.64357

> <RMS Gradient>
0.05773

> <Bond Energy>
8.6323

> <Angle Energy>
23.74901

> <STRBend>
-0.83218

> <Dihedral Energy>
18.25181

> <OOPLane>
0.27262

> <Van der Waals Energy>
64.9616

> <Electrostatic Energy>
-38.3916

> <Hydrogen Bond Energy>
0

> <Solvation Free Energy>
0

> <HasGasteigerCharges>
true

> <REMARK99>
REMARK  99  MacroMolecule created from Mol2 file
REMARK  99  CHEMBL4281564
REMARK  99  PROTEIN
REMARK  99  GASTEIGER
REMARK  99
REMARK  99

$$$$
CHEMBL2204694
  SciTegic05292516403D

 59 61  0  0  0  0            999 V2000
   33.4262   -6.8143    0.3268 C   0  0
   32.0693   -7.3868   -0.1575 C   0  0
   33.5894   -6.0680    1.2837 O   0  0
   34.5049   -7.2227   -0.3903 O   0  0
   31.1123   -6.7237    0.6823 O   0  0
   29.7702   -6.9325    0.6825 C   0  0
   29.0360   -7.7799   -0.1389 C   0  0
   27.6463   -7.8761    0.0010 C   0  0
   26.9704   -7.1236    0.9667 C   0  0
   27.7046   -6.2629    1.7846 C   0  0
   29.0899   -6.1739    1.6407 C   0  0
   25.4729   -7.2094    1.0939 C   0  0
   24.7773   -6.2524    0.1298 C   0  0
   23.2626   -6.3234    0.2802 C   0  0
   22.6862   -5.4290   -0.6703 O   0  0
   21.3392   -5.2168   -0.5687 C   0  0
   20.4446   -5.9862    0.1757 C   0  0
   19.0878   -5.6479    0.2076 C   0  0
   18.6139   -4.5363   -0.4970 C   0  0
   19.5105   -3.7888   -1.2676 C   0  0
   20.8633   -4.1297   -1.3027 C   0  0
   17.1877   -4.2003   -0.4344 C   0  0
   16.7607   -2.9571   -0.1612 C   0  0
   15.3489   -2.5602   -0.0804 C   0  0
   14.3515   -3.4095    0.4150 C   0  0
   13.0273   -2.9725    0.5065 C   0  0
   12.6871   -1.6797    0.1137 C   0  0
   13.6739   -0.8222   -0.3675 C   0  0
   14.9973   -1.2581   -0.4590 C   0  0
   31.8942   -6.9897   -1.6283 C   0  0
   32.1114   -8.8982    0.0948 C   0  0
   34.3519   -7.8443   -1.1237 H   0  0
   29.4928   -8.3846   -0.9097 H   0  0
   27.0933   -8.5424   -0.6577 H   0  0
   27.2083   -5.6530    2.5355 H   0  0
   29.6507   -5.5000    2.2858 H   0  0
   25.1507   -8.2413    0.9044 H   0  0
   25.1791   -6.9870    2.1276 H   0  0
   25.1103   -5.2204    0.3006 H   0  0
   25.0516   -6.4809   -0.9084 H   0  0
   22.9227   -7.3460    0.0781 H   0  0
   22.9844   -6.0314    1.3006 H   0  0
   20.7680   -6.8550    0.7397 H   0  0
   18.4047   -6.2525    0.8004 H   0  0
   19.1662   -2.9373   -1.8492 H   0  0
   21.5532   -3.5373   -1.8985 H   0  0
   16.4985   -5.0211   -0.6091 H   0  0
   17.4804   -2.1591    0.0118 H   0  0
   14.5906   -4.4158    0.7480 H   0  0
   12.2628   -3.6423    0.8907 H   0  0
   11.6570   -1.3397    0.1866 H   0  0
   13.4180    0.1887   -0.6719 H   0  0
   15.7514   -0.5708   -0.8362 H   0  0
   30.9160   -7.2597   -2.0294 H   0  0
   32.6434   -7.4572   -2.2750 H   0  0
   31.9836   -5.9028   -1.7439 H   0  0
   31.2206   -9.4140   -0.2677 H   0  0
   32.1798   -9.1061    1.1692 H   0  0
   32.9691   -9.3738   -0.3920 H   0  0
  1  2  1  0
  1  3  2  0
  1  4  1  0
  2  5  1  0
  2 30  1  0
  2 31  1  0
  4 32  1  0
  5  6  1  0
  6  7  1  0
  6 11  2  0
  7  8  2  0
  7 33  1  0
  8  9  1  0
  8 34  1  0
  9 10  2  0
  9 12  1  0
 10 11  1  0
 10 35  1  0
 11 36  1  0
 12 13  1  0
 12 37  1  0
 12 38  1  0
 13 14  1  0
 13 39  1  0
 13 40  1  0
 14 15  1  0
 14 41  1  0
 14 42  1  0
 15 16  1  0
 16 17  1  0
 16 21  2  0
 17 18  2  0
 17 43  1  0
 18 19  1  0
 18 44  1  0
 19 20  2  0
 19 22  1  0
 20 21  1  0
 20 45  1  0
 21 46  1  0
 22 23  2  0
 22 47  1  0
 23 24  1  0
 23 48  1  0
 24 25  1  0
 24 29  2  0
 25 26  2  0
 25 49  1  0
 26 27  1  0
 26 50  1  0
 27 28  2  0
 27 51  1  0
 28 29  1  0
 28 52  1  0
 29 53  1  0
 30 54  1  0
 30 55  1  0
 30 56  1  0
 31 57  1  0
 31 58  1  0
 31 59  1  0
M  END
> <Name>
CHEMBL2204694

> <Clean Energy>
18.759001

> <chembl_id>
CHEMBL2204694

> <chembl_pref_name>
None

> <efficacy>
0.303893637

> <Forcefield>
MMFF

> <ForcefieldBase>
MMFF

> <ForcefieldFFML>
<?xml version="1.0" encoding="UTF-8"?>
<!DOCTYPE ffml SYSTEM "Ffml.dtd">
<ffml version="1.0">
<forcefield name="MMFF" derivedFrom="MMFF" base="MMFF">
<atomTypes>
<atomType
name="C100"
element="C"
mass="12.011"
annotation=""/>
<atomType
name="O101"
element="O"
mass="16"
annotation=""/>
<atomType
name="H102"
element="H"
mass="1.008"
annotation=""/>
</atomTypes>
<parameters>
</parameters>
</forcefield>
</ffml>

> <Initial Potential Energy>
167.541

> <Initial RMS Gradient>
28.76081

> <Minimization Criteria>
STEEPD> Minimization exiting with gradient tolerance ( 3.0000000) satisfied.

> <CHARMm Energy>
93.30219

> <Potential Energy>
93.30219

> <RMS Gradient>
0.05779

> <Bond Energy>
5.98301

> <Angle Energy>
24.88907

> <STRBend>
0.07189

> <Dihedral Energy>
3.1037

> <OOPLane>
0.03561

> <Van der Waals Energy>
67.18613

> <Electrostatic Energy>
-7.96722

> <Hydrogen Bond Energy>
0

> <Solvation Free Energy>
0

> <HasGasteigerCharges>
true

> <REMARK99>
REMARK  99  MacroMolecule created from Mol2 file
REMARK  99  CHEMBL2204694
REMARK  99  PROTEIN
REMARK  99  GASTEIGER
REMARK  99
REMARK  99

$$$$
CHEMBL4566395
  SciTegic05292516403D

 67 71  0  0  0  0            999 V2000
   27.3093  -12.6228    0.1840 C   0  0
   27.3509  -13.7850   -0.5891 C   0  0
   28.5673  -14.4034   -0.8943 C   0  0
   28.5011  -12.0601    0.6654 C   0  0
   29.7384  -12.6857    0.3967 C   0  0
   29.7484  -13.8587   -0.3618 C   0  0
   31.0598  -14.3078   -0.4051 N   0  0
   31.8819  -13.4086    0.2539 C   0  0
   31.0897  -12.3786    0.7462 C   0  0
   31.5512  -11.1853    1.5135 C   0  0
   33.3582  -13.5892    0.3679 C   0  0
   26.0229  -11.9790    0.5810 C   0  0
   25.9764  -11.2374    1.5563 O   0  0
   24.9244  -12.2603   -0.2042 N   0  0
   31.5191  -15.5139   -1.1127 C   0  0
   30.8086  -16.8049   -0.7510 C   0  0
   30.2864  -17.0589    0.5229 C   0  0
   29.6123  -18.2564    0.7920 C   0  0
   29.4742  -19.2545   -0.1890 C   0  0
   30.0370  -19.0174   -1.4481 C   0  0
   30.6983  -17.8134   -1.7230 C   0  0
   28.7325  -20.4948    0.1041 C   0  0
   27.3484  -20.3649    0.3565 C   0  0
   26.5364  -21.4684    0.6209 C   0  0
   27.0879  -22.7421    0.6352 C   0  0
   28.4509  -22.9040    0.3898 C   0  0
   29.2858  -21.7975    0.1319 C   0  0
   30.7228  -22.1505   -0.0965 C   0  0
   31.6063  -21.2399    0.3679 O   0  0
   31.0676  -23.2077   -0.6025 O   0  0
   23.5803  -11.7978    0.1292 C   0  0
   23.1941  -10.5902   -0.7253 C   0  0
   21.7357  -10.2048   -0.4899 C   0  0
   20.8293  -11.3338   -0.7279 N   0  0
   21.1541  -12.4578    0.1556 C   0  0
   22.5819  -12.9414   -0.0643 C   0  0
   26.4424  -14.2669   -0.9370 H   0  0
   28.5757  -15.3134   -1.4866 H   0  0
   28.4690  -11.1582    1.2724 H   0  0
   30.7326  -10.4917    1.7255 H   0  0
   32.3117  -10.6400    0.9452 H   0  0
   31.9871  -11.4960    2.4685 H   0  0
   33.8227  -12.7579    0.9075 H   0  0
   33.8197  -13.6373   -0.6237 H   0  0
   33.5908  -14.5090    0.9143 H   0  0
   25.0554  -12.7215   -1.0923 H   0  0
   31.3834  -15.2860   -2.1773 H   0  0
   32.5879  -15.6504   -0.9267 H   0  0
   30.3561  -16.3105    1.3121 H   0  0
   29.1774  -18.3942    1.7820 H   0  0
   29.9664  -19.7697   -2.2334 H   0  0
   31.1290  -17.6720   -2.7140 H   0  0
   26.8824  -19.3797    0.3329 H   0  0
   25.4732  -21.3225    0.8054 H   0  0
   26.4643  -23.6093    0.8349 H   0  0
   28.8727  -23.9086    0.4034 H   0  0
   31.2179  -20.4379    0.7743 H   0  0
   23.5652  -11.4991    1.1854 H   0  0
   23.8460   -9.7397   -0.4920 H   0  0
   23.3483  -10.8174   -1.7887 H   0  0
   21.5993   -9.8284    0.5311 H   0  0
   21.4627   -9.3861   -1.1643 H   0  0
   20.9356  -11.6418   -1.6959 H   0  0
   21.0024  -12.1669    1.2020 H   0  0
   20.4559  -13.2776   -0.0465 H   0  0
   22.6780  -13.3594   -1.0757 H   0  0
   22.8082  -13.7590    0.6309 H   0  0
  1  2  2  0
  1 12  1  0
  2  3  1  0
  2 37  1  0
  3  6  2  0
  3 38  1  0
  4  1  1  0
  4 39  1  0
  5  4  2  0
  5  6  1  0
  6  7  1  0
  7  8  1  0
  7 15  1  0
  8  9  2  0
  8 11  1  0
  9  5  1  0
  9 10  1  0
 10 40  1  0
 10 41  1  0
 10 42  1  0
 11 43  1  0
 11 44  1  0
 11 45  1  0
 12 13  2  0
 12 14  1  0
 14 31  1  0
 14 46  1  0
 15 16  1  0
 15 47  1  0
 15 48  1  0
 16 17  2  0
 17 18  1  0
 17 49  1  0
 18 19  2  0
 18 50  1  0
 19 20  1  0
 19 22  1  0
 20 21  2  0
 20 51  1  0
 21 16  1  0
 21 52  1  0
 22 23  2  0
 23 24  1  0
 23 53  1  0
 24 25  2  0
 24 54  1  0
 25 26  1  0
 25 55  1  0
 26 27  2  0
 26 56  1  0
 27 22  1  0
 27 28  1  0
 28 29  1  0
 28 30  2  0
 29 57  1  0
 31 32  1  0
 31 36  1  0
 31 58  1  0
 32 33  1  0
 32 59  1  0
 32 60  1  0
 33 34  1  0
 33 61  1  0
 33 62  1  0
 34 35  1  0
 34 63  1  0
 35 36  1  0
 35 64  1  0
 35 65  1  0
 36 66  1  0
 36 67  1  0
M  END
> <Name>
CHEMBL4566395

> <Clean Energy>
44.9669

> <chembl_id>
CHEMBL4566395

> <chembl_pref_name>
None

> <efficacy>
0.17

> <Forcefield>
MMFF

> <ForcefieldBase>
MMFF

> <ForcefieldFFML>
<?xml version="1.0" encoding="UTF-8"?>
<!DOCTYPE ffml SYSTEM "Ffml.dtd">
<ffml version="1.0">
<forcefield name="MMFF" derivedFrom="MMFF" base="MMFF">
<atomTypes>
<atomType
name="C100"
element="C"
mass="12.011"
annotation=""/>
<atomType
name="N101"
element="N"
mass="14.007"
annotation=""/>
<atomType
name="O102"
element="O"
mass="16"
annotation=""/>
<atomType
name="H103"
element="H"
mass="1.008"
annotation=""/>
</atomTypes>
<parameters>
</parameters>
</forcefield>
</ffml>

> <Initial Potential Energy>
380.31437

> <Initial RMS Gradient>
96.10123

> <Minimization Criteria>
STEEPD> Minimization exiting with gradient tolerance ( 3.0000000) satisfied.

> <CHARMm Energy>
69.06613

> <Potential Energy>
69.06613

> <RMS Gradient>
0.07876

> <Bond Energy>
9.63024

> <Angle Energy>
13.57215

> <STRBend>
0.39202

> <Dihedral Energy>
-0.87467

> <OOPLane>
0.16159

> <Van der Waals Energy>
72.14493

> <Electrostatic Energy>
-25.96012

> <Hydrogen Bond Energy>
0

> <Solvation Free Energy>
0

> <HasGasteigerCharges>
true

> <REMARK99>
REMARK  99  MacroMolecule created from Mol2 file
REMARK  99  CHEMBL4566395
REMARK  99  PROTEIN
REMARK  99  GASTEIGER
REMARK  99
REMARK  99

$$$$
CHEMBL4517866
  SciTegic05292516403D

 53 56  0  0  0  0            999 V2000
   11.8516  -19.9341    0.6649 C   0  0
   11.8854  -20.8120   -0.4231 C   0  0
   13.0885  -21.1250   -1.0690 C   0  0
   13.0178  -19.3240    1.1448 C   0  0
   14.2361  -19.6378    0.4946 C   0  0
   14.2545  -20.5155   -0.5848 C   0  0
   15.5855  -20.5792   -0.9457 N   0  0
   16.2944  -19.7049   -0.1400 C   0  0
   15.5037  -19.1740    0.7703 N   0  0
   16.1448  -21.4300   -1.9924 C   0  0
   17.1703  -22.4091   -1.4640 C   0  0
   16.9518  -23.1203   -0.2767 C   0  0
   17.9357  -23.9687    0.2321 C   0  0
   19.1531  -24.1558   -0.4424 C   0  0
   19.3423  -23.4951   -1.6645 C   0  0
   18.3640  -22.6295   -2.1680 C   0  0
   20.1856  -25.0335    0.1312 C   0  0
   19.8533  -26.3901    0.3446 C   0  0
   20.7680  -27.2954    0.8819 C   0  0
   22.0487  -26.8713    1.2059 C   0  0
   22.4122  -25.5436    0.9938 C   0  0
   21.4905  -24.6154    0.4733 C   0  0
   22.0173  -23.2303    0.3267 C   0  0
   21.1990  -22.1853    0.6518 N   0  0
   23.1822  -23.0399   -0.0153 O   0  0
   17.7648  -19.4460   -0.2707 C   0  0
   18.1735  -18.0985    0.3273 C   0  0
   19.6647  -17.8490    0.1625 C   0  0
   12.9798  -18.4869    2.2613 N   0  0
   10.9010  -19.7303    1.1530 H   0  0
   10.9565  -21.2659   -0.7663 H   0  0
   13.1054  -21.8150   -1.9052 H   0  0
   15.3360  -21.9850   -2.4767 H   0  0
   16.5805  -20.7531   -2.7364 H   0  0
   16.0270  -22.9979    0.2861 H   0  0
   17.7482  -24.4767    1.1772 H   0  0
   20.2650  -23.6424   -2.2281 H   0  0
   18.5554  -22.1165   -3.1088 H   0  0
   18.8616  -26.7556    0.0796 H   0  0
   20.4759  -28.3299    1.0389 H   0  0
   22.7681  -27.5693    1.6217 H   0  0
   23.4244  -25.2266    1.2444 H   0  0
   20.2503  -22.2924    0.9820 H   0  0
   21.6076  -21.2614    0.5981 H   0  0
   18.3122  -20.2478    0.2384 H   0  0
   18.0547  -19.4628   -1.3275 H   0  0
   17.6162  -17.2872   -0.1569 H   0  0
   17.9226  -18.0658    1.3945 H   0  0
   19.9377  -16.8830    0.5984 H   0  0
   19.9460  -17.8361   -0.8953 H   0  0
   20.2500  -18.6262    0.6644 H   0  0
   12.1969  -17.8542    2.3873 H   0  0
   13.9149  -18.1699    2.5270 H   0  0
  1  2  2  0
  1 30  1  0
  2  3  1  0
  2 31  1  0
  3  6  2  0
  3 32  1  0
  4  1  1  0
  4 29  1  0
  5  4  2  0
  5  6  1  0
  6  7  1  0
  7  8  1  0
  7 10  1  0
  8  9  2  0
  8 26  1  0
  9  5  1  0
 10 11  1  0
 10 33  1  0
 10 34  1  0
 11 12  2  0
 12 13  1  0
 12 35  1  0
 13 14  2  0
 13 36  1  0
 14 15  1  0
 14 17  1  0
 15 16  2  0
 15 37  1  0
 16 11  1  0
 16 38  1  0
 17 18  2  0
 18 19  1  0
 18 39  1  0
 19 20  2  0
 19 40  1  0
 20 21  1  0
 20 41  1  0
 21 22  2  0
 21 42  1  0
 22 17  1  0
 22 23  1  0
 23 24  1  0
 23 25  2  0
 24 43  1  0
 24 44  1  0
 26 27  1  0
 26 45  1  0
 26 46  1  0
 27 28  1  0
 27 47  1  0
 27 48  1  0
 28 49  1  0
 28 50  1  0
 28 51  1  0
 29 52  1  0
 29 53  1  0
M  END
> <Name>
CHEMBL4517866

> <Clean Energy>
46.854401

> <chembl_id>
CHEMBL4517866

> <chembl_pref_name>
None

> <efficacy>
0.238366572

> <Forcefield>
MMFF

> <ForcefieldBase>
MMFF

> <ForcefieldFFML>
<?xml version="1.0" encoding="UTF-8"?>
<!DOCTYPE ffml SYSTEM "Ffml.dtd">
<ffml version="1.0">
<forcefield name="MMFF" derivedFrom="MMFF" base="MMFF">
<atomTypes>
<atomType
name="C100"
element="C"
mass="12.011"
annotation=""/>
<atomType
name="N101"
element="N"
mass="14.007"
annotation=""/>
<atomType
name="O102"
element="O"
mass="16"
annotation=""/>
<atomType
name="H103"
element="H"
mass="1.008"
annotation=""/>
</atomTypes>
<parameters>
</parameters>
</forcefield>
</ffml>

> <Initial Potential Energy>
251.03192

> <Initial RMS Gradient>
37.99999

> <Minimization Criteria>
CONJUG> Minimization exiting with gradient tolerance ( 0.0100000) satisfied.

> <CHARMm Energy>
65.46056

> <Potential Energy>
65.46056

> <RMS Gradient>
0.00961

> <Bond Energy>
7.45839

> <Angle Energy>
10.49735

> <STRBend>
-0.34786

> <Dihedral Energy>
9.83033

> <OOPLane>
2.04575

> <Van der Waals Energy>
55.06417

> <Electrostatic Energy>
-19.08757

> <Hydrogen Bond Energy>
0

> <Solvation Free Energy>
0

> <HasGasteigerCharges>
true

> <REMARK99>
REMARK  99  MacroMolecule created from Mol2 file
REMARK  99  CHEMBL4517866
REMARK  99  PROTEIN
REMARK  99  GASTEIGER
REMARK  99
REMARK  99

$$$$
CHEMBL2312716
  SciTegic05292516403D

 42 44  0  0  0  0            999 V2000
   -2.7796  -11.9072    0.7978 C   0  0
   -2.9647  -13.2872    0.8452 C   0  0
   -1.8861  -14.1314    0.5987 C   0  0
   -0.6289  -13.5899    0.3084 C   0  0
   -0.4072  -12.2029    0.2496 C   0  0
   -1.5161  -11.3728    0.5033 C   0  0
    0.9216  -11.6287   -0.0638 C   0  0
    2.0879  -12.0726    0.5825 C   0  0
    3.3523  -11.5307    0.2876 C   0  0
    3.4848  -10.5294   -0.6698 C   0  0
    2.3341  -10.0718   -1.3150 C   0  0
    1.0726  -10.6109   -1.0187 C   0  0
    4.6437   -9.9238   -1.0718 O   0  0
    5.9052  -10.3619   -0.5436 C   0  0  2  0  0  0
    6.9273   -9.2192   -0.7185 C   0  0
    8.0037   -9.3163    0.1087 O   0  0
    6.8301   -8.2940   -1.5129 O   0  0
    6.3967  -11.5878   -1.3335 C   0  0
    7.4898  -12.3536   -0.6251 C   0  0
    8.8296  -12.1970   -1.0075 C   0  0
    9.8432  -12.8726   -0.3266 C   0  0
    9.5295  -13.7151    0.7377 C   0  0
    8.2001  -13.8876    1.1175 C   0  0
    7.1836  -13.2119    0.4393 C   0  0
    0.3811  -14.4438    0.0740 F   0  0
   -3.6159  -11.2392    0.9905 H   0  0
   -3.9450  -13.7021    1.0719 H   0  0
   -2.0074  -15.2099    0.6262 H   0  0
   -1.3974  -10.2907    0.4869 H   0  0
    2.0226  -12.8562    1.3363 H   0  0
    4.2010  -11.9258    0.8313 H   0  0
    2.4162   -9.2887   -2.0663 H   0  0
    0.2065  -10.2325   -1.5600 H   0  0
    5.8156  -10.5337    0.5354 H   0  0
    7.9919  -10.1087    0.6825 H   0  0
    5.5690  -12.2805   -1.5318 H   0  0
    6.7414  -11.2803   -2.3301 H   0  0
    9.0965  -11.5430   -1.8366 H   0  0
   10.8802  -12.7455   -0.6304 H   0  0
   10.3228  -14.2447    1.2616 H   0  0
    7.9495  -14.5573    1.9370 H   0  0
    6.1524  -13.3771    0.7420 H   0  0
  1  2  2  0
  1 26  1  0
  2  3  1  0
  2 27  1  0
  3  4  2  0
  3 28  1  0
  4  5  1  0
  4 25  1  0
  5  6  2  0
  5  7  1  0
  6  1  1  0
  6 29  1  0
  7  8  2  0
  8  9  1  0
  8 30  1  0
  9 10  2  0
  9 31  1  0
 10 11  1  0
 10 13  1  0
 11 12  2  0
 11 32  1  0
 12  7  1  0
 12 33  1  0
 13 14  1  0
 14 15  1  0
 14 18  1  0
 14 34  1  0
 15 16  1  0
 15 17  2  0
 16 35  1  0
 18 19  1  0
 18 36  1  0
 18 37  1  0
 19 20  2  0
 20 21  1  0
 20 38  1  0
 21 22  2  0
 21 39  1  0
 22 23  1  0
 22 40  1  0
 23 24  2  0
 23 41  1  0
 24 19  1  0
 24 42  1  0
M  END
> <Name>
CHEMBL2312716

> <Clean Energy>
21.289801

> <chembl_id>
CHEMBL2312716

> <chembl_pref_name>
None

> <efficacy>
0.37

> <Forcefield>
MMFF

> <ForcefieldBase>
MMFF

> <ForcefieldFFML>
<?xml version="1.0" encoding="UTF-8"?>
<!DOCTYPE ffml SYSTEM "Ffml.dtd">
<ffml version="1.0">
<forcefield name="MMFF" derivedFrom="MMFF" base="MMFF">
<atomTypes>
<atomType
name="C100"
element="C"
mass="12.011"
annotation=""/>
<atomType
name="O101"
element="O"
mass="16"
annotation=""/>
<atomType
name="F102"
element="F"
mass="18.998"
annotation=""/>
<atomType
name="H103"
element="H"
mass="1.008"
annotation=""/>
</atomTypes>
<parameters>
</parameters>
</forcefield>
</ffml>

> <Initial Potential Energy>
164.92964

> <Initial RMS Gradient>
32.85449

> <Minimization Criteria>
CONJUG> Minimization exiting with gradient tolerance ( 0.0100000) satisfied.

> <CHARMm Energy>
81.27835

> <Potential Energy>
81.27835

> <RMS Gradient>
0.00962

> <Bond Energy>
6.79314

> <Angle Energy>
11.48238

> <STRBend>
-0.08997

> <Dihedral Energy>
3.18308

> <OOPLane>
0.00683

> <Van der Waals Energy>
51.67667

> <Electrostatic Energy>
8.22622

> <Hydrogen Bond Energy>
0

> <Solvation Free Energy>
0

> <HasGasteigerCharges>
true

> <REMARK99>
REMARK  99  MacroMolecule created from Mol2 file
REMARK  99  CHEMBL2312716
REMARK  99  PROTEIN
REMARK  99  GASTEIGER
REMARK  99
REMARK  99

$$$$
CHEMBL4859651
  SciTegic05292516403D

 38 40  0  0  0  0            999 V2000
   19.9744  -12.3773   -1.8324 C   0  0
   21.2673  -11.8620   -1.6810 C   0  0
   21.5323  -10.7995   -0.8101 C   0  0
   20.4819  -10.2247   -0.0733 C   0  0
   18.9555  -11.8017   -1.0667 C   0  0
   19.1815  -10.7434   -0.1917 C   0  0
   17.9416  -10.4329    0.4226 C   0  0
   16.9800  -11.2851   -0.0853 C   0  0
   17.6150  -12.1022   -0.9936 N   0  0
   22.9393  -10.2895   -0.6162 C   0  0
   23.4710  -10.7016    0.7544 C   0  0
   24.8248  -10.1066    1.0166 C   0  0
   25.1928  -10.2150    2.3161 O   0  0
   25.5498   -9.5982    0.1767 O   0  0
   15.5536  -11.3880    0.2101 C   0  0
   14.6843  -10.2832    0.0824 C   0  0
   13.3355  -10.4401    0.4297 C   0  0
   12.8585  -11.6726    0.8643 C   0  0
   13.7032  -12.7672    0.9790 C   0  0
   15.0489  -12.6247    0.6539 C   0  0
   15.1649   -8.9346   -0.3840 C   0  0
   11.5640  -11.8039    1.1799 F   0  0
   19.7802  -13.2003   -2.5124 H   0  0
   22.0747  -12.3097   -2.2572 H   0  0
   20.6663   -9.3933    0.6013 H   0  0
   17.7717   -9.6672    1.1681 H   0  0
   17.1581  -12.8201   -1.5375 H   0  0
   23.5959  -10.6711   -1.4082 H   0  0
   22.9409   -9.1970   -0.7223 H   0  0
   22.7917  -10.3532    1.5413 H   0  0
   23.5525  -11.7923    0.8235 H   0  0
   24.5117  -10.6421    2.8719 H   0  0
   12.6364   -9.6107    0.3593 H   0  0
   13.3039  -13.7155    1.3258 H   0  0
   15.7228  -13.4710    0.7760 H   0  0
   14.3231   -8.2993   -0.6813 H   0  0
   15.8106   -9.0284   -1.2630 H   0  0
   15.7027   -8.4233    0.4199 H   0  0
  1  2  2  0
  1 23  1  0
  2  3  1  0
  2 24  1  0
  3  4  2  0
  3 10  1  0
  4  6  1  0
  4 25  1  0
  5  1  1  0
  5  6  2  0
  6  7  1  0
  7  8  2  0
  7 26  1  0
  8  9  1  0
  8 15  1  0
  9  5  1  0
  9 27  1  0
 10 11  1  0
 10 28  1  0
 10 29  1  0
 11 12  1  0
 11 30  1  0
 11 31  1  0
 12 13  1  0
 12 14  2  0
 13 32  1  0
 15 16  2  0
 16 17  1  0
 16 21  1  0
 17 18  2  0
 17 33  1  0
 18 19  1  0
 18 22  1  0
 19 20  2  0
 19 34  1  0
 20 15  1  0
 20 35  1  0
 21 36  1  0
 21 37  1  0
 21 38  1  0
M  END
> <Name>
CHEMBL4859651

> <Clean Energy>
24.3901

> <chembl_id>
CHEMBL4859651

> <chembl_pref_name>
None

> <efficacy>
0.3252

> <Forcefield>
MMFF

> <ForcefieldBase>
MMFF

> <ForcefieldFFML>
<?xml version="1.0" encoding="UTF-8"?>
<!DOCTYPE ffml SYSTEM "Ffml.dtd">
<ffml version="1.0">
<forcefield name="MMFF" derivedFrom="MMFF" base="MMFF">
<atomTypes>
<atomType
name="C100"
element="C"
mass="12.011"
annotation=""/>
<atomType
name="N101"
element="N"
mass="14.007"
annotation=""/>
<atomType
name="O102"
element="O"
mass="16"
annotation=""/>
<atomType
name="F103"
element="F"
mass="18.998"
annotation=""/>
<atomType
name="H104"
element="H"
mass="1.008"
annotation=""/>
</atomTypes>
<parameters>
</parameters>
</forcefield>
</ffml>

> <Initial Potential Energy>
61.77424

> <Initial RMS Gradient>
31.90135

> <Minimization Criteria>
CONJUG> Minimization exiting with gradient tolerance ( 0.0100000) satisfied.

> <CHARMm Energy>
6.77711

> <Potential Energy>
6.77711

> <RMS Gradient>
0.00881

> <Bond Energy>
3.97724

> <Angle Energy>
2.92383

> <STRBend>
-0.58986

> <Dihedral Energy>
1.47736

> <OOPLane>
0.03006

> <Van der Waals Energy>
37.05629

> <Electrostatic Energy>
-38.0978

> <Hydrogen Bond Energy>
0

> <Solvation Free Energy>
0

> <HasGasteigerCharges>
true

> <REMARK99>
REMARK  99  MacroMolecule created from Mol2 file
REMARK  99  CHEMBL4859651
REMARK  99  PROTEIN
REMARK  99  GASTEIGER
REMARK  99
REMARK  99

$$$$
CHEMBL4866667
  SciTegic05292516403D

 56 59  0  0  0  0            999 V2000
   -0.1066   -3.7183    0.1968 C   0  0
    0.3555   -4.6380   -0.7457 C   0  0
    1.6781   -4.6085   -1.1994 C   0  0
    0.7431   -2.7324    0.7368 C   0  0
    2.0797   -2.7029    0.2823 C   0  0
    2.5182   -3.6208   -0.6685 C   0  0
    3.8366   -3.2771   -0.8928 N   0  0
    4.1361   -2.1828   -0.1037 C   0  0
    3.0971   -1.8511    0.6352 N   0  0
    5.4677   -1.4955   -0.0932 C   0  0
    5.3909   -0.0855    0.4961 C   0  0
    6.7471    0.6020    0.4695 C   0  0
    4.7170   -3.8986   -1.8756 C   0  0
    5.9717   -4.4983   -1.2852 C   0  0
    5.9482   -5.2578   -0.1077 C   0  0
    7.1216   -5.8307    0.3930 C   0  0
    8.3422   -5.6854   -0.2834 C   0  0
    8.3610   -4.9324   -1.4657 C   0  0
    7.1911   -4.3508   -1.9632 C   0  0
    9.5728   -6.3103    0.2272 C   0  0
    9.7839   -7.7066    0.2537 C   0  0
   10.9744   -8.2294    0.7918 C   0  0
   11.9579   -7.3828    1.3010 C   0  0
   11.7671   -6.0065    1.2716 C   0  0
   10.5884   -5.4774    0.7410 C   0  0
    0.2007   -1.7630    1.7456 C   0  0
    8.7807   -8.6532   -0.3121 C   0  0
    8.0647   -8.4284   -1.2734 O   0  0
    8.7593   -9.7863    0.4399 O   0  0
    7.7683  -10.7280    0.0273 C   0  0
   -1.1474   -3.7642    0.5174 H   0  0
   -0.3241   -5.3920   -1.1372 H   0  0
    2.0205   -5.3258   -1.9370 H   0  0
    6.1718   -2.0956    0.4948 H   0  0
    5.8588   -1.4278   -1.1148 H   0  0
    4.6697    0.5190   -0.0675 H   0  0
    5.0322   -0.1273    1.5318 H   0  0
    6.6712    1.6068    0.8968 H   0  0
    7.1192    0.6963   -0.5557 H   0  0
    7.4834    0.0394    1.0524 H   0  0
    4.1676   -4.6820   -2.4060 H   0  0
    4.9559   -3.1142   -2.6039 H   0  0
    5.0178   -5.4134    0.4363 H   0  0
    7.0717   -6.4088    1.3137 H   0  0
    9.2901   -4.8155   -2.0217 H   0  0
    7.2426   -3.7904   -2.8945 H   0  0
   11.1390   -9.3030    0.8117 H   0  0
   12.8697   -7.7960    1.7206 H   0  0
   12.5308   -5.3410    1.6672 H   0  0
   10.4571   -4.3961    0.7400 H   0  0
    0.9737   -1.0695    2.0910 H   0  0
   -0.1831   -2.3020    2.6177 H   0  0
   -0.6096   -1.1744    1.3039 H   0  0
    6.7675  -10.2910    0.1028 H   0  0
    7.8203  -11.5897    0.6985 H   0  0
    7.9670  -11.0716   -0.9927 H   0  0
  1  2  2  0
  1 31  1  0
  2  3  1  0
  2 32  1  0
  3  6  2  0
  3 33  1  0
  4  1  1  0
  4 26  1  0
  5  4  2  0
  5  6  1  0
  6  7  1  0
  7  8  1  0
  7 13  1  0
  8  9  2  0
  8 10  1  0
  9  5  1  0
 10 11  1  0
 10 34  1  0
 10 35  1  0
 11 12  1  0
 11 36  1  0
 11 37  1  0
 12 38  1  0
 12 39  1  0
 12 40  1  0
 13 14  1  0
 13 41  1  0
 13 42  1  0
 14 15  2  0
 15 16  1  0
 15 43  1  0
 16 17  2  0
 16 44  1  0
 17 18  1  0
 17 20  1  0
 18 19  2  0
 18 45  1  0
 19 14  1  0
 19 46  1  0
 20 21  2  0
 21 22  1  0
 21 27  1  0
 22 23  2  0
 22 47  1  0
 23 24  1  0
 23 48  1  0
 24 25  2  0
 24 49  1  0
 25 20  1  0
 25 50  1  0
 26 51  1  0
 26 52  1  0
 26 53  1  0
 27 28  2  0
 27 29  1  0
 29 30  1  0
 30 54  1  0
 30 55  1  0
 30 56  1  0
M  END
> <Name>
CHEMBL4866667

> <Clean Energy>
62.466702

> <chembl_id>
CHEMBL4866667

> <chembl_pref_name>
None

> <efficacy>
0.131054131

> <Forcefield>
MMFF

> <ForcefieldBase>
MMFF

> <ForcefieldFFML>
<?xml version="1.0" encoding="UTF-8"?>
<!DOCTYPE ffml SYSTEM "Ffml.dtd">
<ffml version="1.0">
<forcefield name="MMFF" derivedFrom="MMFF" base="MMFF">
<atomTypes>
<atomType
name="C100"
element="C"
mass="12.011"
annotation=""/>
<atomType
name="N101"
element="N"
mass="14.007"
annotation=""/>
<atomType
name="O102"
element="O"
mass="16"
annotation=""/>
<atomType
name="H103"
element="H"
mass="1.008"
annotation=""/>
</atomTypes>
<parameters>
</parameters>
</forcefield>
</ffml>

> <Initial Potential Energy>
286.2383

> <Initial RMS Gradient>
36.71214

> <Minimization Criteria>
CONJUG> Minimization exiting with gradient tolerance ( 0.0100000) satisfied.

> <CHARMm Energy>
87.97302

> <Potential Energy>
87.97302

> <RMS Gradient>
0.00924

> <Bond Energy>
7.36605

> <Angle Energy>
7.31704

> <STRBend>
-0.25439

> <Dihedral Energy>
5.20922

> <OOPLane>
0.07371

> <Van der Waals Energy>
58.90542

> <Electrostatic Energy>
9.35597

> <Hydrogen Bond Energy>
0

> <Solvation Free Energy>
0

> <HasGasteigerCharges>
true

> <REMARK99>
REMARK  99  MacroMolecule created from Mol2 file
REMARK  99  CHEMBL4866667
REMARK  99  PROTEIN
REMARK  99  GASTEIGER
REMARK  99
REMARK  99

$$$$
CHEMBL4743099
  SciTegic05292516403D

 48 51  0  0  0  0            999 V2000
    5.6668  -17.1144   -0.2829 C   0  0
    7.1381  -16.7764   -0.2225 C   0  0
    7.8732  -16.6112   -1.4027 C   0  0
    9.2160  -16.2319   -1.3499 C   0  0
    9.8524  -16.0175   -0.1241 C   0  0
    9.1124  -16.1820    1.0546 C   0  0
    7.7734  -16.5744    1.0090 C   0  0
   11.2053  -15.6059   -0.1350 N   0  0
   11.9091  -16.1083    0.7726 N   0  0
    4.7601  -15.9916    0.2309 C   0  0  1  0  0  0
    4.8738  -14.4459   -0.7405 S   0  0
    3.1627  -14.3889   -1.0453 C   0  0
    2.5511  -15.4754   -0.5198 N   0  0
    3.3049  -16.4008    0.1359 C   0  0
    2.8407  -17.4352    0.5975 O   0  0
    2.6126  -13.4929   -1.6599 O   0  0
   12.2344  -17.4704    0.5747 C   0  0
   12.1811  -18.3321    1.6743 C   0  0
   12.4984  -19.6863    1.5382 C   0  0
   12.8980  -20.2075    0.2990 C   0  0
   12.9629  -19.3393   -0.8013 C   0  0
   12.6383  -17.9861   -0.6636 C   0  0
   13.2350  -21.6317    0.1562 C   0  0
   12.2051  -22.5895    0.2295 C   0  0
   12.4641  -23.9506    0.0735 C   0  0
   13.7633  -24.3800   -0.1607 C   0  0
   14.8012  -23.4516   -0.2265 C   0  0
   14.5570  -22.0784   -0.0564 C   0  0
   15.7210  -21.1252   -0.1314 C   0  0
    5.3827  -17.3940   -1.3067 H   0  0
    5.5062  -18.0225    0.3140 H   0  0
    7.4012  -16.7461   -2.3738 H   0  0
    9.7702  -16.0880   -2.2740 H   0  0
    9.5790  -15.9908    2.0175 H   0  0
    7.2281  -16.6930    1.9426 H   0  0
    4.9701  -15.7493    1.2783 H   0  0
    1.5576  -15.6000   -0.6370 H   0  0
   11.8799  -17.9433    2.6433 H   0  0
   12.4465  -20.3359    2.4102 H   0  0
   13.2672  -19.7206   -1.7746 H   0  0
   12.6845  -17.3294   -1.5287 H   0  0
   11.1793  -22.2708    0.4009 H   0  0
   11.6524  -24.6711    0.1292 H   0  0
   13.9721  -25.4384   -0.2905 H   0  0
   15.8126  -23.8075   -0.4080 H   0  0
   15.6796  -20.3918    0.6803 H   0  0
   15.7243  -20.6070   -1.0951 H   0  0
   16.6747  -21.6546   -0.0290 H   0  0
  1  2  1  0
  1 10  1  0
  1 30  1  0
  1 31  1  0
  2  3  2  0
  3  4  1  0
  3 32  1  0
  4  5  2  0
  4 33  1  0
  5  6  1  0
  5  8  1  0
  6  7  2  0
  6 34  1  0
  7  2  1  0
  7 35  1  0
  8  9  2  0
  9 17  1  0
 10 11  1  0
 10 36  1  0
 11 12  1  0
 12 13  1  0
 12 16  2  0
 13 14  1  0
 13 37  1  0
 14 10  1  0
 14 15  2  0
 17 18  2  0
 18 19  1  0
 18 38  1  0
 19 20  2  0
 19 39  1  0
 20 21  1  0
 20 23  1  0
 21 22  2  0
 21 40  1  0
 22 17  1  0
 22 41  1  0
 23 24  2  0
 24 25  1  0
 24 42  1  0
 25 26  2  0
 25 43  1  0
 26 27  1  0
 26 44  1  0
 27 28  2  0
 27 45  1  0
 28 23  1  0
 28 29  1  0
 29 46  1  0
 29 47  1  0
 29 48  1  0
M  END
> <Name>
CHEMBL4743099

> <Clean Energy>
45.692699

> <chembl_id>
CHEMBL4743099

> <chembl_pref_name>
None

> <efficacy>
0.37037037

> <Forcefield>
MMFF

> <ForcefieldBase>
MMFF

> <ForcefieldFFML>
<?xml version="1.0" encoding="UTF-8"?>
<!DOCTYPE ffml SYSTEM "Ffml.dtd">
<ffml version="1.0">
<forcefield name="MMFF" derivedFrom="MMFF" base="MMFF">
<atomTypes>
<atomType
name="C100"
element="C"
mass="12.011"
annotation=""/>
<atomType
name="N101"
element="N"
mass="14.007"
annotation=""/>
<atomType
name="S102"
element="S"
mass="32.066"
annotation=""/>
<atomType
name="O103"
element="O"
mass="16"
annotation=""/>
<atomType
name="H104"
element="H"
mass="1.008"
annotation=""/>
</atomTypes>
<parameters>
</parameters>
</forcefield>
</ffml>

> <Initial Potential Energy>
149.19516

> <Initial RMS Gradient>
36.51282

> <Minimization Criteria>
STEEPD> Minimization exiting with gradient tolerance ( 3.0000000) satisfied.

> <CHARMm Energy>
23.2274

> <Potential Energy>
23.2274

> <RMS Gradient>
0.03804

> <Bond Energy>
6.56334

> <Angle Energy>
6.61067

> <STRBend>
-0.13637

> <Dihedral Energy>
26.77001

> <OOPLane>
0.03822

> <Van der Waals Energy>
55.57017

> <Electrostatic Energy>
-72.18865

> <Hydrogen Bond Energy>
0

> <Solvation Free Energy>
0

> <HasGasteigerCharges>
true

> <REMARK99>
REMARK  99  MacroMolecule created from Mol2 file
REMARK  99  CHEMBL4743099
REMARK  99  PROTEIN
REMARK  99  GASTEIGER
REMARK  99
REMARK  99

$$$$
CHEMBL4443400
  SciTegic05292516403D

 35 36  0  0  0  0            999 V2000
   41.4206  -18.9494    0.2481 C   0  0
   41.6353  -20.1381   -0.4015 C   0  0
   42.9500  -20.4777   -0.5937 C   0  0
   44.0067  -19.7473   -0.2138 N   0  0
   43.7056  -18.5994    0.3945 C   0  0
   42.4526  -18.1740    0.6390 N   0  0
   40.1478  -18.4297    0.4943 N   0  0
   38.8321  -18.9261    0.4078 C   0  0
   37.7731  -18.0674    0.0020 C   0  0
   36.4298  -18.5440   -0.0336 C   0  0
   36.1833  -19.9025    0.2361 C   0  0
   37.2283  -20.7523    0.5968 C   0  0
   38.5336  -20.2657    0.6907 C   0  0
   45.0377  -17.5334    0.9090 S   0  0
   46.4497  -18.4195    0.1863 C   0  0
   47.7749  -17.7084    0.3907 C   0  0
   48.8009  -18.3797   -0.2057 O   0  0
   47.9796  -16.6716    1.0016 O   0  0
   43.3665  -21.9370   -1.3978 Cl  0  0
   34.6006  -20.5985    0.1320 Cl  0  0
   38.0731  -16.6299   -0.3682 C   0  0
   35.2923  -17.6235   -0.4107 C   0  0
   40.8343  -20.7591   -0.7723 H   0  0
   40.2275  -17.4989    0.8922 H   0  0
   37.0198  -21.7965    0.8247 H   0  0
   39.3102  -20.9452    1.0310 H   0  0
   46.5270  -19.4081    0.6498 H   0  0
   46.2911  -18.5178   -0.8926 H   0  0
   48.5269  -19.2014   -0.6574 H   0  0
   37.4316  -16.2890   -1.1871 H   0  0
   39.0959  -16.5024   -0.7362 H   0  0
   37.9270  -15.9830    0.5021 H   0  0
   34.3514  -17.9130    0.0665 H   0  0
   35.1566  -17.6235   -1.4965 H   0  0
   35.4768  -16.5993   -0.0716 H   0  0
  1  2  2  0
  1  7  1  0
  2  3  1  0
  2 23  1  0
  3  4  2  0
  3 19  1  0
  4  5  1  0
  5  6  2  0
  5 14  1  0
  6  1  1  0
  7  8  1  0
  7 24  1  0
  8  9  2  0
  9 10  1  0
  9 21  1  0
 10 11  2  0
 10 22  1  0
 11 12  1  0
 11 20  1  0
 12 13  2  0
 12 25  1  0
 13  8  1  0
 13 26  1  0
 14 15  1  0
 15 16  1  0
 15 27  1  0
 15 28  1  0
 16 17  1  0
 16 18  2  0
 17 29  1  0
 21 30  1  0
 21 31  1  0
 21 32  1  0
 22 33  1  0
 22 34  1  0
 22 35  1  0
M  END
> <Name>
CHEMBL4443400

> <Clean Energy>
2.80466

> <chembl_id>
CHEMBL4443400

> <chembl_pref_name>
None

> <efficacy>
0.23

> <Forcefield>
MMFF

> <ForcefieldBase>
MMFF

> <ForcefieldFFML>
<?xml version="1.0" encoding="UTF-8"?>
<!DOCTYPE ffml SYSTEM "Ffml.dtd">
<ffml version="1.0">
<forcefield name="MMFF" derivedFrom="MMFF" base="MMFF">
<atomTypes>
<atomType
name="C100"
element="C"
mass="12.011"
annotation=""/>
<atomType
name="N101"
element="N"
mass="14.007"
annotation=""/>
<atomType
name="S102"
element="S"
mass="32.066"
annotation=""/>
<atomType
name="O103"
element="O"
mass="16"
annotation=""/>
<atomType
name="Cl104"
element="Cl"
mass="35.453"
annotation=""/>
<atomType
name="H105"
element="H"
mass="1.008"
annotation=""/>
</atomTypes>
<parameters>
</parameters>
</forcefield>
</ffml>

> <Initial Potential Energy>
17.60116

> <Initial RMS Gradient>
42.55249

> <Minimization Criteria>
CONJUG> Minimization exiting with gradient tolerance ( 0.0100000) satisfied.

> <CHARMm Energy>
-78.24336

> <Potential Energy>
-78.24336

> <RMS Gradient>
0.00885

> <Bond Energy>
3.98293

> <Angle Energy>
11.73639

> <STRBend>
0.38669

> <Dihedral Energy>
5.47595

> <OOPLane>
0.08257

> <Van der Waals Energy>
41.11915

> <Electrostatic Energy>
-141.02704

> <Hydrogen Bond Energy>
0

> <Solvation Free Energy>
0

> <HasGasteigerCharges>
true

> <REMARK99>
REMARK  99  MacroMolecule created from Mol2 file
REMARK  99  CHEMBL4443400
REMARK  99  PROTEIN
REMARK  99  GASTEIGER
REMARK  99
REMARK  99

$$$$
CHEMBL4286027
  SciTegic05292516403D

 62 67  0  0  0  0            999 V2000
   19.0633  -12.8721   -2.1164 C   0  0
   20.2308  -12.0515   -2.1825 O   0  0
   20.4299  -14.3541   -0.1774 C   0  0
   19.1710  -13.7007    0.2473 C   0  0
   18.4893  -12.9532   -0.7231 C   0  0
   17.3207  -12.2726   -0.3678 C   0  0
   16.8369  -12.3181    0.9513 C   0  0
   17.5166  -13.0944    1.9017 C   0  0
   18.6867  -13.7702    1.5567 C   0  0
   21.3862  -12.4522   -1.5605 C   0  0
   21.5560  -13.4976   -0.6322 C   0  0
   22.8209  -13.6802   -0.0378 C   0  0
   23.9046  -12.8777   -0.3908 C   0  0
   23.7390  -11.8700   -1.3314 C   0  0
   22.4861  -11.6542   -1.9028 C   0  0
   20.4856  -15.7013   -0.3144 C   0  0
   19.3079  -16.5112    0.0495 C   0  0
   21.5966  -16.5131   -0.9168 C   0  0
   15.6280  -11.5063    1.3589 C   0  0
   15.7996  -10.0984    1.0258 N   0  0
   18.2058  -16.6515   -0.5974 N   0  0
   17.4342  -17.5599    0.1978 O   0  0
   18.2218  -17.8825    1.2743 C   0  0
   19.3640  -17.1888    1.1919 N   0  0
   17.9563  -18.7050    2.1383 O   0  0
   15.5906   -8.1721   -0.0545 N   0  0
   15.0769   -9.3782    0.0936 C   0  0
   16.6272   -8.0907    0.8366 C   0  0
   16.7668   -9.2699    1.5551 C   0  0
   17.7491   -9.4376    2.5403 C   0  0
   18.6085   -8.3587    2.7804 C   0  0
   18.4861   -7.1663    2.0685 C   0  0
   17.4958   -7.0204    1.0905 C   0  0
   13.8907   -9.9242   -0.6422 C   0  0
   13.2402   -8.8892   -1.5614 C   0  0
   12.0265   -9.4626   -2.2760 C   0  0
   18.3249  -12.4160   -2.7865 H   0  0
   19.2621  -13.8647   -2.5409 H   0  0
   16.8107  -11.6679   -1.1160 H   0  0
   17.1609  -13.1479    2.9285 H   0  0
   19.2244  -14.3279    2.3178 H   0  0
   22.9705  -14.4456    0.7204 H   0  0
   24.8733  -13.0315    0.0760 H   0  0
   24.5797  -11.2421   -1.6089 H   0  0
   22.3560  -10.8462   -2.6190 H   0  0
   21.1949  -17.3545   -1.4932 H   0  0
   22.2386  -16.9197   -0.1288 H   0  0
   22.2150  -15.9368   -1.6108 H   0  0
   14.7375  -11.9006    0.8616 H   0  0
   15.4520  -11.5520    2.4399 H   0  0
   20.1063  -17.2370    1.8638 H   0  0
   17.8612  -10.3639    3.0912 H   0  0
   19.3898   -8.4643    3.5297 H   0  0
   19.1595   -6.3364    2.2712 H   0  0
   17.3870   -6.0959    0.5341 H   0  0
   14.2060  -10.7895   -1.2376 H   0  0
   13.1499  -10.2742    0.0870 H   0  0
   12.9318   -8.0105   -0.9817 H   0  0
   13.9641   -8.5411   -2.3084 H   0  0
   11.5799   -8.7068   -2.9297 H   0  0
   11.2644   -9.7843   -1.5590 H   0  0
   12.3044  -10.3233   -2.8926 H   0  0
  1  2  1  0
  1  5  1  0
  1 37  1  0
  1 38  1  0
  2 10  1  0
  3 16  2  0
  4  3  1  0
  4  5  2  0
  5  6  1  0
  6  7  2  0
  6 39  1  0
  7  8  1  0
  7 19  1  0
  8  9  2  0
  8 40  1  0
  9  4  1  0
  9 41  1  0
 10 11  2  0
 11  3  1  0
 11 12  1  0
 12 13  2  0
 12 42  1  0
 13 14  1  0
 13 43  1  0
 14 15  2  0
 14 44  1  0
 15 10  1  0
 15 45  1  0
 16 17  1  0
 16 18  1  0
 17 21  2  0
 18 46  1  0
 18 47  1  0
 18 48  1  0
 19 20  1  0
 19 49  1  0
 19 50  1  0
 20 29  1  0
 21 22  1  0
 22 23  1  0
 23 24  1  0
 23 25  2  0
 24 17  1  0
 24 51  1  0
 26 27  2  0
 27 20  1  0
 27 34  1  0
 28 26  1  0
 28 29  2  0
 29 30  1  0
 30 31  2  0
 30 52  1  0
 31 32  1  0
 31 53  1  0
 32 33  2  0
 32 54  1  0
 33 28  1  0
 33 55  1  0
 34 35  1  0
 34 56  1  0
 34 57  1  0
 35 36  1  0
 35 58  1  0
 35 59  1  0
 36 60  1  0
 36 61  1  0
 36 62  1  0
M  END
> <Name>
CHEMBL4286027

> <Clean Energy>
121.235001

> <chembl_id>
CHEMBL4286027

> <chembl_pref_name>
None

> <efficacy>
0.132953466

> <Forcefield>
MMFF

> <ForcefieldBase>
MMFF

> <ForcefieldFFML>
<?xml version="1.0" encoding="UTF-8"?>
<!DOCTYPE ffml SYSTEM "Ffml.dtd">
<ffml version="1.0">
<forcefield name="MMFF" derivedFrom="MMFF" base="MMFF">
<atomTypes>
<atomType
name="C100"
element="C"
mass="12.011"
annotation=""/>
<atomType
name="O101"
element="O"
mass="16"
annotation=""/>
<atomType
name="N102"
element="N"
mass="14.007"
annotation=""/>
<atomType
name="H103"
element="H"
mass="1.008"
annotation=""/>
</atomTypes>
<parameters>
</parameters>
</forcefield>
</ffml>

> <Initial Potential Energy>
533.40739

> <Initial RMS Gradient>
126.23827

> <Minimization Criteria>
STEEPD> Minimization exiting with gradient tolerance ( 3.0000000) satisfied.

> <CHARMm Energy>
76.30343

> <Potential Energy>
76.30343

> <RMS Gradient>
0.02797

> <Bond Energy>
8.7771

> <Angle Energy>
23.76177

> <STRBend>
-0.84497

> <Dihedral Energy>
16.38343

> <OOPLane>
0.25614

> <Van der Waals Energy>
66.1361

> <Electrostatic Energy>
-38.16614

> <Hydrogen Bond Energy>
0

> <Solvation Free Energy>
0

> <HasGasteigerCharges>
true

> <REMARK99>
REMARK  99  MacroMolecule created from Mol2 file
REMARK  99  CHEMBL4286027
REMARK  99  PROTEIN
REMARK  99  GASTEIGER
REMARK  99
REMARK  99

$$$$
CHEMBL4756972
  SciTegic05292516403D

 35 37  0  0  0  0            999 V2000
    5.2293  -12.3583    0.2961 C   0  0
    6.6546  -12.8390    0.4290 C   0  0
    7.2986  -13.4448   -0.6572 C   0  0
    8.6526  -13.7697   -0.5780 C   0  0
    9.3826  -13.4924    0.5816 C   0  0
    8.7259  -12.9447    1.6875 C   0  0
    7.3709  -12.6163    1.6132 C   0  0
   10.7649  -13.7412    0.6113 N   0  0
   11.3642  -12.6844    0.3106 N   0  0
    5.1393  -10.8408    0.1041 C   0  0  1  0  0  0
    5.8359  -10.2523   -1.4841 S   0  0
    4.3480   -9.4901   -1.9679 C   0  0
    3.3863   -9.6862   -1.0355 N   0  0
    3.6939  -10.4072    0.0776 C   0  0
    2.8732  -10.6610    0.9504 O   0  0
    4.1918   -8.8756   -3.0099 O   0  0
   12.7474  -12.8854    0.1687 C   0  0
   13.2697  -13.8538   -0.7005 C   0  0
   14.6434  -13.9618   -0.8931 C   0  0
   15.5059  -13.0966   -0.2210 C   0  0
   14.9987  -12.1257    0.6421 C   0  0
   13.6246  -12.0217    0.8335 C   0  0
    4.7231  -12.8861   -0.5237 H   0  0
    4.6846  -12.6551    1.2026 H   0  0
    6.7655  -13.6306   -1.5871 H   0  0
    9.1564  -14.2034   -1.4377 H   0  0
    9.2864  -12.7409    2.5959 H   0  0
    6.8896  -12.1593    2.4752 H   0  0
    5.6376  -10.2990    0.9156 H   0  0
    2.4563   -9.3201   -1.1795 H   0  0
   12.5846  -14.5018   -1.2419 H   0  0
   15.0467  -14.7119   -1.5694 H   0  0
   16.5792  -13.1749   -0.3761 H   0  0
   15.6786  -11.4510    1.1570 H   0  0
   13.2157  -11.2526    1.4844 H   0  0
  1  2  1  0
  1 10  1  0
  1 23  1  0
  1 24  1  0
  2  3  2  0
  3  4  1  0
  3 25  1  0
  4  5  2  0
  4 26  1  0
  5  6  1  0
  5  8  1  0
  6  7  2  0
  6 27  1  0
  7  2  1  0
  7 28  1  0
  8  9  2  0
  9 17  1  0
 10 11  1  0
 10 29  1  0
 11 12  1  0
 12 13  1  0
 12 16  2  0
 13 14  1  0
 13 30  1  0
 14 10  1  0
 14 15  2  0
 17 18  2  0
 18 19  1  0
 18 31  1  0
 19 20  2  0
 19 32  1  0
 20 21  1  0
 20 33  1  0
 21 22  2  0
 21 34  1  0
 22 17  1  0
 22 35  1  0
M  END
> <Name>
CHEMBL4756972

> <Clean Energy>
38.695202

> <chembl_id>
CHEMBL4756972

> <chembl_pref_name>
None

> <efficacy>
0.360873694

> <Forcefield>
MMFF

> <ForcefieldBase>
MMFF

> <ForcefieldFFML>
<?xml version="1.0" encoding="UTF-8"?>
<!DOCTYPE ffml SYSTEM "Ffml.dtd">
<ffml version="1.0">
<forcefield name="MMFF" derivedFrom="MMFF" base="MMFF">
<atomTypes>
<atomType
name="C100"
element="C"
mass="12.011"
annotation=""/>
<atomType
name="N101"
element="N"
mass="14.007"
annotation=""/>
<atomType
name="S102"
element="S"
mass="32.066"
annotation=""/>
<atomType
name="O103"
element="O"
mass="16"
annotation=""/>
<atomType
name="H104"
element="H"
mass="1.008"
annotation=""/>
</atomTypes>
<parameters>
</parameters>
</forcefield>
</ffml>

> <Initial Potential Energy>
54.43339

> <Initial RMS Gradient>
30.70191

> <Minimization Criteria>
CONJUG> Minimization exiting with gradient tolerance ( 0.0100000) satisfied.

> <CHARMm Energy>
-21.55667

> <Potential Energy>
-21.55667

> <RMS Gradient>
0.00894

> <Bond Energy>
3.41667

> <Angle Energy>
3.44148

> <STRBend>
-0.08572

> <Dihedral Energy>
12.29173

> <OOPLane>
0.09935

> <Van der Waals Energy>
33.98771

> <Electrostatic Energy>
-74.70788

> <Hydrogen Bond Energy>
0

> <Solvation Free Energy>
0

> <HasGasteigerCharges>
true

> <REMARK99>
REMARK  99  MacroMolecule created from Mol2 file
REMARK  99  CHEMBL4756972
REMARK  99  PROTEIN
REMARK  99  GASTEIGER
REMARK  99
REMARK  99

$$$$
CHEMBL4288363
  SciTegic05292516403D

 72 77  0  0  0  0            999 V2000
   29.3836   -6.2475   -1.6352 C   0  0
   29.3774   -5.8055   -0.1652 C   0  0
   27.9872   -5.3023    0.2369 C   0  0
   32.2960  -12.5884   -1.7124 C   0  0
   33.6053  -12.0245   -1.6011 O   0  0
   33.2936  -14.7322   -0.2288 C   0  0
   32.2069  -13.9424    0.3945 C   0  0
   31.6896  -12.8850   -0.3627 C   0  0
   30.6476  -12.1145    0.1601 C   0  0
   30.1343  -12.3644    1.4459 C   0  0
   30.6805  -13.4190    2.1939 C   0  0
   31.7182  -14.1963    1.6777 C   0  0
   34.6440  -12.7906   -1.1341 C   0  0
   34.5823  -14.0507   -0.5050 C   0  0
   35.7706  -14.6382   -0.0322 C   0  0
   36.9996  -14.0025   -0.2023 C   0  0
   37.0555  -12.7659   -0.8326 C   0  0
   35.8856  -12.1644   -1.2916 C   0  0
   33.0311  -15.9626   -0.7361 C   0  0
   31.6630  -16.5004   -0.6067 C   0  0
   33.9263  -16.8112   -1.5895 C   0  0
   28.9942  -11.5653    2.0419 C   0  0
   28.8472  -10.2484    1.4411 N   0  0
   30.6479  -16.2193   -1.3473 N   0  0
   29.5653  -16.9506   -0.7636 O   0  0
   30.0933  -17.6081    0.3197 C   0  0
   31.3978  -17.3163    0.4059 N   0  0
   29.4823  -18.3444    1.0777 O   0  0
   28.1834   -8.6670    0.0495 N   0  0
   27.9503   -9.8972    0.4548 C   0  0
   29.2195   -8.1872    0.8128 C   0  0
   29.6487   -9.1590    1.7101 C   0  0
   30.6961   -8.9539    2.6133 C   0  0
   31.2992   -7.6980    2.6006 C   0  0
   30.8797   -6.7092    1.7085 C   0  0
   29.8364   -6.9156    0.7750 C   0  0
   26.9015  -10.8205   -0.0845 C   0  0
   26.1259  -10.2107   -1.2531 C   0  0
   25.0688  -11.1695   -1.7786 C   0  0
   30.2504   -4.6588   -0.0824 O   0  0
   28.6405   -7.0212   -1.8483 H   0  0
   30.3684   -6.6351   -1.9226 H   0  0
   29.1800   -5.3962   -2.2957 H   0  0
   27.9873   -4.9390    1.2717 H   0  0
   27.2208   -6.0793    0.1508 H   0  0
   27.6845   -4.4541   -0.3885 H   0  0
   31.6816  -11.8444   -2.2332 H   0  0
   32.3041  -13.4676   -2.3690 H   0  0
   30.2565  -11.3016   -0.4494 H   0  0
   30.3051  -13.6383    3.1918 H   0  0
   32.1433  -14.9879    2.2856 H   0  0
   35.7467  -15.5936    0.4887 H   0  0
   37.9090  -14.4664    0.1700 H   0  0
   38.0026  -12.2519   -0.9536 H   0  0
   35.9365  -11.1875   -1.7672 H   0  0
   33.3518  -17.3213   -2.3711 H   0  0
   34.4158  -17.5753   -0.9774 H   0  0
   34.6961  -16.2311   -2.1060 H   0  0
   28.0558  -12.1159    1.9243 H   0  0
   29.1535  -11.4062    3.1150 H   0  0
   32.0081  -17.6442    1.1302 H   0  0
   31.0286   -9.7257    3.2985 H   0  0
   32.1031   -7.4769    3.3001 H   0  0
   31.3689   -5.7389    1.7625 H   0  0
   27.3758  -11.7518   -0.4165 H   0  0
   26.2032  -11.0732    0.7225 H   0  0
   25.6399   -9.2789   -0.9389 H   0  0
   26.8137   -9.9533   -2.0679 H   0  0
   24.5277  -10.7158   -2.6147 H   0  0
   24.3422  -11.4177   -0.9984 H   0  0
   25.5241  -12.0997   -2.1332 H   0  0
   31.1045   -4.9583   -0.4417 H   0  0
  1 41  1  0
  1 42  1  0
  1 43  1  0
  2  1  1  0
  2 40  1  0
  3  2  1  0
  3 44  1  0
  3 45  1  0
  3 46  1  0
  4  5  1  0
  4  8  1  0
  4 47  1  0
  4 48  1  0
  5 13  1  0
  6 19  2  0
  7  6  1  0
  7  8  2  0
  8  9  1  0
  9 10  2  0
  9 49  1  0
 10 11  1  0
 10 22  1  0
 11 12  2  0
 11 50  1  0
 12  7  1  0
 12 51  1  0
 13 14  2  0
 14  6  1  0
 14 15  1  0
 15 16  2  0
 15 52  1  0
 16 17  1  0
 16 53  1  0
 17 18  2  0
 17 54  1  0
 18 13  1  0
 18 55  1  0
 19 20  1  0
 19 21  1  0
 20 24  2  0
 21 56  1  0
 21 57  1  0
 21 58  1  0
 22 23  1  0
 22 59  1  0
 22 60  1  0
 23 32  1  0
 24 25  1  0
 25 26  1  0
 26 27  1  0
 26 28  2  0
 27 20  1  0
 27 61  1  0
 29 30  2  0
 30 23  1  0
 30 37  1  0
 31 29  1  0
 31 32  2  0
 32 33  1  0
 33 34  2  0
 33 62  1  0
 34 35  1  0
 34 63  1  0
 35 36  2  0
 35 64  1  0
 36  2  1  0
 36 31  1  0
 37 38  1  0
 37 65  1  0
 37 66  1  0
 38 39  1  0
 38 67  1  0
 38 68  1  0
 39 69  1  0
 39 70  1  0
 39 71  1  0
 40 72  1  0
M  END
> <Name>
CHEMBL4288363

> <Clean Energy>
122.547997

> <chembl_id>
CHEMBL4288363

> <chembl_pref_name>
None

> <efficacy>
0.045584046

> <Forcefield>
MMFF

> <ForcefieldBase>
MMFF

> <ForcefieldFFML>
<?xml version="1.0" encoding="UTF-8"?>
<!DOCTYPE ffml SYSTEM "Ffml.dtd">
<ffml version="1.0">
<forcefield name="MMFF" derivedFrom="MMFF" base="MMFF">
<atomTypes>
<atomType
name="C100"
element="C"
mass="12.011"
annotation=""/>
<atomType
name="O101"
element="O"
mass="16"
annotation=""/>
<atomType
name="N102"
element="N"
mass="14.007"
annotation=""/>
<atomType
name="H103"
element="H"
mass="1.008"
annotation=""/>
</atomTypes>
<parameters>
</parameters>
</forcefield>
</ffml>

> <Initial Potential Energy>
334.69752

> <Initial RMS Gradient>
40.77279

> <Minimization Criteria>
CONJUG> Minimization exiting with gradient tolerance ( 0.0100000) satisfied.

> <CHARMm Energy>
85.53471

> <Potential Energy>
85.53471

> <RMS Gradient>
0.00928

> <Bond Energy>
10.3441

> <Angle Energy>
25.12197

> <STRBend>
-0.7398

> <Dihedral Energy>
20.27867

> <OOPLane>
0.37519

> <Van der Waals Energy>
75.73121

> <Electrostatic Energy>
-45.57663

> <Hydrogen Bond Energy>
0

> <Solvation Free Energy>
0

> <HasGasteigerCharges>
true

> <REMARK99>
REMARK  99  MacroMolecule created from Mol2 file
REMARK  99  CHEMBL4288363
REMARK  99  PROTEIN
REMARK  99  GASTEIGER
REMARK  99
REMARK  99

$$$$
CHEMBL4533822
  SciTegic05292516403D

 54 56  0  0  0  0            999 V2000
   14.0479  -23.8399    0.6363 C   0  0
   15.1793  -24.7881    0.1997 C   0  0
   15.5992  -25.7317    1.3356 C   0  0
    4.1099  -25.2848   -0.1624 C   0  0
    4.2795  -26.2451   -1.1635 C   0  0
    5.4023  -27.0792   -1.1791 C   0  0
    6.3900  -26.9540   -0.1959 C   0  0
    6.2385  -25.9748    0.7972 C   0  0
    5.1067  -25.1523    0.8140 C   0  0
    2.9745  -24.4505   -0.1988 N   0  0
    2.3141  -24.5469    0.8595 N   0  0
    1.1534  -23.7539    0.7924 C   0  0
    1.2143  -22.3527    0.8020 C   0  0
    0.0440  -21.5871    0.7749 C   0  0
   -1.1959  -22.2242    0.7461 C   0  0
   -1.2753  -23.6158    0.7465 C   0  0
   -0.1017  -24.3752    0.7743 C   0  0
    7.6216  -27.8264   -0.2325 C   0  0
    8.7854  -27.1253   -0.9260 C   0  0
    9.9253  -27.9901   -0.8915 O   0  0
   11.1301  -27.3538   -1.0171 C   0  0
   12.2208  -28.0223   -0.4570 C   0  0
   13.4856  -27.4343   -0.4636 C   0  0
   13.6437  -26.1653   -1.0112 C   0  0
   12.5836  -25.5377   -1.6618 C   0  0
   11.3210  -26.1285   -1.6586 C   0  0
   14.8570  -25.5457   -0.9937 O   0  0
   16.4083  -23.9314   -0.1902 C   0  0
   16.8750  -23.1228    0.7996 O   0  0
   16.9690  -23.9458   -1.2784 O   0  0
   -2.7802  -21.1939    0.7122 Br  0  0
   13.1478  -24.3901    0.9309 H   0  0
   13.7681  -23.1667   -0.1821 H   0  0
   14.3288  -23.2197    1.4931 H   0  0
   16.3431  -26.4553    0.9829 H   0  0
   14.7474  -26.3025    1.7184 H   0  0
   16.0304  -25.1960    2.1873 H   0  0
    3.5237  -26.3490   -1.9376 H   0  0
    5.4831  -27.8280   -1.9648 H   0  0
    7.0078  -25.8410    1.5569 H   0  0
    4.9765  -24.4081    1.5962 H   0  0
    2.1830  -21.8600    0.8308 H   0  0
    0.1054  -20.5011    0.7816 H   0  0
   -2.2418  -24.1145    0.7303 H   0  0
   -0.1581  -25.4612    0.7807 H   0  0
    7.9065  -28.1084    0.7894 H   0  0
    7.4022  -28.7762   -0.7368 H   0  0
    8.5287  -26.9089   -1.9703 H   0  0
    8.9903  -26.1820   -0.4019 H   0  0
   12.0752  -28.9968    0.0012 H   0  0
   14.3323  -27.9632   -0.0360 H   0  0
   12.7359  -24.5828   -2.1571 H   0  0
   10.5075  -25.6137   -2.1604 H   0  0
   16.3747  -23.1592    1.6347 H   0  0
  1 32  1  0
  1 33  1  0
  1 34  1  0
  2  1  1  0
  2 28  1  0
  3  2  1  0
  3 35  1  0
  3 36  1  0
  3 37  1  0
  4  5  2  0
  4 10  1  0
  5  6  1  0
  5 38  1  0
  6  7  2  0
  6 39  1  0
  7  8  1  0
  7 18  1  0
  8  9  2  0
  8 40  1  0
  9  4  1  0
  9 41  1  0
 10 11  2  0
 11 12  1  0
 12 13  2  0
 13 14  1  0
 13 42  1  0
 14 15  2  0
 14 43  1  0
 15 16  1  0
 15 31  1  0
 16 17  2  0
 16 44  1  0
 17 12  1  0
 17 45  1  0
 18 19  1  0
 18 46  1  0
 18 47  1  0
 19 20  1  0
 19 48  1  0
 19 49  1  0
 20 21  1  0
 21 22  2  0
 22 23  1  0
 22 50  1  0
 23 24  2  0
 23 51  1  0
 24 25  1  0
 24 27  1  0
 25 26  2  0
 25 52  1  0
 26 21  1  0
 26 53  1  0
 27  2  1  0
 28 29  1  0
 28 30  2  0
 29 54  1  0
M  END
> <Name>
CHEMBL4533822

> <Clean Energy>
19.4744

> <chembl_id>
CHEMBL4533822

> <chembl_pref_name>
None

> <efficacy>
0.08

> <Forcefield>
MMFF

> <ForcefieldBase>
MMFF

> <ForcefieldFFML>
<?xml version="1.0" encoding="UTF-8"?>
<!DOCTYPE ffml SYSTEM "Ffml.dtd">
<ffml version="1.0">
<forcefield name="MMFF" derivedFrom="MMFF" base="MMFF">
<atomTypes>
<atomType
name="C100"
element="C"
mass="12.011"
annotation=""/>
<atomType
name="N101"
element="N"
mass="14.007"
annotation=""/>
<atomType
name="O102"
element="O"
mass="16"
annotation=""/>
<atomType
name="Br103"
element="Br"
mass="79.904"
annotation=""/>
<atomType
name="H104"
element="H"
mass="1.008"
annotation=""/>
</atomTypes>
<parameters>
</parameters>
</forcefield>
</ffml>

> <Initial Potential Energy>
166.58273

> <Initial RMS Gradient>
30.00326

> <Minimization Criteria>
STEEPD> Minimization exiting with gradient tolerance ( 3.0000000) satisfied.

> <CHARMm Energy>
96.91873

> <Potential Energy>
96.91873

> <RMS Gradient>
0.03098

> <Bond Energy>
6.33202

> <Angle Energy>
12.91011

> <STRBend>
0.6882

> <Dihedral Energy>
15.92015

> <OOPLane>
0.07916

> <Van der Waals Energy>
63.92325

> <Electrostatic Energy>
-2.93414

> <Hydrogen Bond Energy>
0

> <Solvation Free Energy>
0

> <HasGasteigerCharges>
true

> <REMARK99>
REMARK  99  MacroMolecule created from Mol2 file
REMARK  99  CHEMBL4533822
REMARK  99  PROTEIN
REMARK  99  GASTEIGER
REMARK  99
REMARK  99

$$$$
CHEMBL4445737
  SciTegic05292516403D

 57 59  0  0  0  0            999 V2000
   17.0839  -11.9706    0.4916 C   0  0
   16.4306  -10.6107    0.2095 C   0  0
   16.2236  -10.2937   -1.2784 C   0  0
    4.6198  -11.0275   -1.0532 C   0  0
    4.5535  -12.2378   -0.3572 C   0  0
    5.7162  -12.9475   -0.0902 C   0  0
    6.9452  -12.4545   -0.5246 C   0  0
    7.0096  -11.2940   -1.2996 C   0  0
    5.8417  -10.5779   -1.5592 C   0  0
    3.4538  -10.2675   -1.1926 N   0  0
    3.3610   -9.5135   -0.1973 N   0  0
    2.0440   -9.0641   -0.0666 C   0  0
    1.5026   -8.1196   -0.9408 C   0  0
    0.1735   -7.7269   -0.8033 C   0  0
   -0.6218   -8.2645    0.2221 C   0  0
   -0.0691   -9.1956    1.1105 C   0  0
    1.2585   -9.5847    0.9682 C   0  0
    8.0206  -13.1875   -0.1198 O   0  0
    9.2725  -12.4913   -0.1239 C   0  0
   10.2735  -13.2624    0.7339 C   0  0
   11.6083  -12.5623    0.7845 C   0  0
   12.6448  -12.9381   -0.0748 C   0  0
   13.8736  -12.2619   -0.0588 C   0  0
   14.0874  -11.1989    0.8127 C   0  0
   13.0477  -10.8237    1.6704 C   0  0
   11.8199  -11.4928    1.6595 C   0  0
   15.2099  -10.4408    0.9497 O   0  0
   17.4028   -9.5308    0.7797 C   0  0
   18.6124   -9.4714    0.1534 O   0  0
   17.1695   -8.7797    1.7174 O   0  0
   -2.0687   -7.8745    0.3393 C   0  0
   -2.2808   -6.5603    0.0533 F   0  0
   -2.5837   -8.0715    1.5847 F   0  0
   -2.8652   -8.5767   -0.5119 F   0  0
   16.5175  -12.8110    0.0882 H   0  0
   17.1639  -12.1377    1.5722 H   0  0
   18.0910  -12.0430    0.0686 H   0  0
   15.8747   -9.2612   -1.4017 H   0  0
   15.4718  -10.9260   -1.7527 H   0  0
   17.1441  -10.4059   -1.8596 H   0  0
    3.5979  -12.5961    0.0159 H   0  0
    5.6601  -13.8625    0.4920 H   0  0
    7.9490  -10.9117   -1.6867 H   0  0
    5.8737   -9.6506   -2.1246 H   0  0
    2.1190   -7.7114   -1.7377 H   0  0
   -0.2469   -7.0053   -1.5024 H   0  0
   -0.6769   -9.6225    1.9078 H   0  0
    1.6900  -10.3130    1.6509 H   0  0
    9.6429  -12.4195   -1.1540 H   0  0
    9.1538  -11.4813    0.2907 H   0  0
    9.8798  -13.3885    1.7507 H   0  0
   10.3891  -14.2828    0.3465 H   0  0
   12.5103  -13.7643   -0.7709 H   0  0
   14.6246  -12.6039   -0.7573 H   0  0
   13.2007   -9.9948    2.3594 H   0  0
   11.0321  -11.1669    2.3361 H   0  0
   18.7284  -10.1133   -0.5688 H   0  0
  1 35  1  0
  1 36  1  0
  1 37  1  0
  2  1  1  0
  2 28  1  0
  3  2  1  0
  3 38  1  0
  3 39  1  0
  3 40  1  0
  4  5  2  0
  4 10  1  0
  5  6  1  0
  5 41  1  0
  6  7  2  0
  6 42  1  0
  7  8  1  0
  7 18  1  0
  8  9  2  0
  8 43  1  0
  9  4  1  0
  9 44  1  0
 10 11  2  0
 11 12  1  0
 12 13  2  0
 13 14  1  0
 13 45  1  0
 14 15  2  0
 14 46  1  0
 15 16  1  0
 15 31  1  0
 16 17  2  0
 16 47  1  0
 17 12  1  0
 17 48  1  0
 18 19  1  0
 19 20  1  0
 19 49  1  0
 19 50  1  0
 20 21  1  0
 20 51  1  0
 20 52  1  0
 21 22  2  0
 22 23  1  0
 22 53  1  0
 23 24  2  0
 23 54  1  0
 24 25  1  0
 24 27  1  0
 25 26  2  0
 25 55  1  0
 26 21  1  0
 26 56  1  0
 27  2  1  0
 28 29  1  0
 28 30  2  0
 29 57  1  0
 31 32  1  0
 31 33  1  0
 31 34  1  0
M  END
> <Name>
CHEMBL4445737

> <Clean Energy>
32.732201

> <chembl_id>
CHEMBL4445737

> <chembl_pref_name>
None

> <efficacy>
0.08

> <Forcefield>
MMFF

> <ForcefieldBase>
MMFF

> <ForcefieldFFML>
<?xml version="1.0" encoding="UTF-8"?>
<!DOCTYPE ffml SYSTEM "Ffml.dtd">
<ffml version="1.0">
<forcefield name="MMFF" derivedFrom="MMFF" base="MMFF">
<atomTypes>
<atomType
name="C100"
element="C"
mass="12.011"
annotation=""/>
<atomType
name="N101"
element="N"
mass="14.007"
annotation=""/>
<atomType
name="O102"
element="O"
mass="16"
annotation=""/>
<atomType
name="F103"
element="F"
mass="18.998"
annotation=""/>
<atomType
name="H104"
element="H"
mass="1.008"
annotation=""/>
</atomTypes>
<parameters>
</parameters>
</forcefield>
</ffml>

> <Initial Potential Energy>
204.37587

> <Initial RMS Gradient>
29.68175

> <Minimization Criteria>
STEEPD> Minimization exiting with gradient tolerance ( 3.0000000) satisfied.

> <CHARMm Energy>
129.92777

> <Potential Energy>
129.92777

> <RMS Gradient>
0.05846

> <Bond Energy>
6.29608

> <Angle Energy>
22.24808

> <STRBend>
0.12518

> <Dihedral Energy>
9.5982

> <OOPLane>
0.04906

> <Van der Waals Energy>
65.59526

> <Electrostatic Energy>
26.01591

> <Hydrogen Bond Energy>
0

> <Solvation Free Energy>
0

> <HasGasteigerCharges>
true

> <REMARK99>
REMARK  99  MacroMolecule created from Mol2 file
REMARK  99  CHEMBL4445737
REMARK  99  PROTEIN
REMARK  99  GASTEIGER
REMARK  99
REMARK  99

$$$$
CHEMBL5090355
  SciTegic05292516403D

 60 62  0  0  0  0            999 V2000
   13.7816  -18.5516   -2.3923 C   0  0
   14.5667  -17.8999   -1.2364 C   0  0
   14.0077  -18.4364    0.0905 C   0  0
   25.1161  -16.3822    1.3018 C   0  0
   23.8676  -16.9731    1.0499 C   0  0
   23.8024  -18.1711    0.3272 C   0  0
   24.9630  -18.7729   -0.1594 C   0  0
   26.2112  -18.2059    0.0898 C   0  0
   26.2824  -17.0124    0.8144 C   0  0
   27.3645  -18.8340   -0.4083 N   0  0
   28.0328  -19.3124    0.5336 N   0  0
   22.7657  -16.3697    1.5888 O   0  0
   21.5283  -16.5024    0.8814 C   0  0
   20.6193  -17.4991    1.6005 C   0  0
   19.3364  -17.7305    0.8461 C   0  0
   18.1992  -16.9599    1.1127 C   0  0
   17.0174  -17.1427    0.3802 C   0  0
   16.9594  -18.0957   -0.6307 C   0  0
   18.0996  -18.8602   -0.9011 C   0  0
   19.2770  -18.6857   -0.1718 C   0  0
   15.9046  -18.3779   -1.4442 O   0  0
   14.3744  -16.3658   -1.3813 C   0  0
   13.0992  -15.9307   -1.2078 O   0  0
   15.2815  -15.5776   -1.6229 O   0  0
   29.1530  -20.0288    0.0686 C   0  0
   29.4780  -21.2328    0.7009 C   0  0
   30.5856  -21.9814    0.2941 C   0  0
   31.4033  -21.5288   -0.7475 C   0  0
   31.0830  -20.3234   -1.3833 C   0  0
   29.9761  -19.5764   -0.9711 C   0  0
   25.2846  -15.1112    2.1008 C   0  0
   26.2694  -14.3096    1.5830 F   0  0
   25.6886  -15.3545    3.3848 F   0  0
   24.1775  -14.3235    2.1799 F   0  0
   32.5749  -22.3486   -1.2088 C   0  0
   13.9145  -19.6401   -2.3905 H   0  0
   14.1523  -18.1929   -3.3603 H   0  0
   12.7087  -18.3389   -2.3462 H   0  0
   14.3811  -17.8686    0.9478 H   0  0
   14.2981  -19.4819    0.2444 H   0  0
   12.9148  -18.3790    0.1302 H   0  0
   22.8590  -18.6738    0.1427 H   0  0
   24.9092  -19.7051   -0.7168 H   0  0
   27.2601  -16.5716    1.0057 H   0  0
   21.0559  -15.5122    0.8928 H   0  0
   21.6732  -16.7463   -0.1788 H   0  0
   21.1340  -18.4552    1.7551 H   0  0
   20.4029  -17.1363    2.6138 H   0  0
   18.2250  -16.1927    1.8844 H   0  0
   16.1833  -16.4918    0.6113 H   0  0
   18.0701  -19.5979   -1.6993 H   0  0
   20.1466  -19.2927   -0.4144 H   0  0
   12.4532  -16.6252   -0.9918 H   0  0
   28.8526  -21.5925    1.5146 H   0  0
   30.8094  -22.9164    0.8021 H   0  0
   31.6979  -19.9515   -2.1999 H   0  0
   29.7479  -18.6370   -1.4683 H   0  0
   33.3665  -21.7066   -1.6090 H   0  0
   32.2574  -23.0478   -1.9883 H   0  0
   33.0055  -22.9159   -0.3769 H   0  0
  1 36  1  0
  1 37  1  0
  1 38  1  0
  2  1  1  0
  2 22  1  0
  3  2  1  0
  3 39  1  0
  3 40  1  0
  3 41  1  0
  4  5  2  0
  4 31  1  0
  5  6  1  0
  5 12  1  0
  6  7  2  0
  6 42  1  0
  7  8  1  0
  7 43  1  0
  8  9  2  0
  8 10  1  0
  9  4  1  0
  9 44  1  0
 10 11  2  0
 11 25  1  0
 12 13  1  0
 13 14  1  0
 13 45  1  0
 13 46  1  0
 14 15  1  0
 14 47  1  0
 14 48  1  0
 15 16  2  0
 16 17  1  0
 16 49  1  0
 17 18  2  0
 17 50  1  0
 18 19  1  0
 18 21  1  0
 19 20  2  0
 19 51  1  0
 20 15  1  0
 20 52  1  0
 21  2  1  0
 22 23  1  0
 22 24  2  0
 23 53  1  0
 25 26  2  0
 26 27  1  0
 26 54  1  0
 27 28  2  0
 27 55  1  0
 28 29  1  0
 28 35  1  0
 29 30  2  0
 29 56  1  0
 30 25  1  0
 30 57  1  0
 31 32  1  0
 31 33  1  0
 31 34  1  0
 35 58  1  0
 35 59  1  0
 35 60  1  0
M  END
> <Name>
CHEMBL5090355

> <Clean Energy>
65.801903

> <chembl_id>
CHEMBL5090355

> <chembl_pref_name>
None

> <efficacy>
0.313390313

> <Forcefield>
MMFF

> <ForcefieldBase>
MMFF

> <ForcefieldFFML>
<?xml version="1.0" encoding="UTF-8"?>
<!DOCTYPE ffml SYSTEM "Ffml.dtd">
<ffml version="1.0">
<forcefield name="MMFF" derivedFrom="MMFF" base="MMFF">
<atomTypes>
<atomType
name="C100"
element="C"
mass="12.011"
annotation=""/>
<atomType
name="N101"
element="N"
mass="14.007"
annotation=""/>
<atomType
name="O102"
element="O"
mass="16"
annotation=""/>
<atomType
name="F103"
element="F"
mass="18.998"
annotation=""/>
<atomType
name="H104"
element="H"
mass="1.008"
annotation=""/>
</atomTypes>
<parameters>
</parameters>
</forcefield>
</ffml>

> <Initial Potential Energy>
364.30401

> <Initial RMS Gradient>
68.8627

> <Minimization Criteria>
CONJUG> Minimization exiting with gradient tolerance ( 0.0100000) satisfied.

> <CHARMm Energy>
105.174

> <Potential Energy>
105.174

> <RMS Gradient>
0.00997

> <Bond Energy>
7.23082

> <Angle Energy>
24.55978

> <STRBend>
0.05107

> <Dihedral Energy>
7.64659

> <OOPLane>
0.07318

> <Van der Waals Energy>
66.56762

> <Electrostatic Energy>
-0.95506

> <Hydrogen Bond Energy>
0

> <Solvation Free Energy>
0

> <HasGasteigerCharges>
true

> <REMARK99>
REMARK  99  MacroMolecule created from Mol2 file
REMARK  99  CHEMBL5090355
REMARK  99  PROTEIN
REMARK  99  GASTEIGER
REMARK  99
REMARK  99

$$$$
CHEMBL5173134
  SciTegic05292516403D

 58 59  0  0  0  0            999 V2000
    7.1088   -2.6700   -0.2140 C   0  0
    7.7074   -2.8146   -1.6173 C   0  0
    8.1886   -2.4202    0.8445 C   0  0
    6.3614   -3.9642    0.1398 C   0  0
    6.0935   -1.6336   -0.1829 O   0  0
    6.4086   -0.3497   -0.4344 C   0  0
    7.4976    0.1121   -0.7392 O   0  0
    5.2890    0.4087   -0.3624 N   0  0
    5.2661    1.8713   -0.2119 C   0  0  1  0  0  0
    5.7469    2.6976   -1.4226 C   0  0
    6.5562    2.0600   -2.2941 O   0  0
    5.5080    3.8927   -1.5650 O   0  0
    3.8474    2.3721    0.1315 C   0  0
    3.1097    1.4735    1.5494 S   0  0
    1.6081    2.4834    1.7930 C   0  0
    0.3314    1.7080    1.5619 C   0  0
   -0.0430    0.6766    2.4359 C   0  0
   -1.2433   -0.0158    2.2475 C   0  0
   -2.1014    0.3211    1.1931 C   0  0
   -1.7294    1.3360    0.3059 C   0  0
   -0.5213    2.0238    0.4916 C   0  0
   -3.3569   -0.4607    1.0321 C   0  0
   -3.4082   -1.6215    1.4412 O   0  0
   -4.5877    0.1037    0.4142 C   0  0
   -5.3914   -0.7508   -0.3519 C   0  0
   -6.5982   -0.2980   -0.8987 C   0  0
   -7.0290    1.0071   -0.6645 C   0  0
   -6.2296    1.8575    0.1086 C   0  0
   -5.0152    1.4134    0.6512 C   0  0
   -8.1952    1.5638   -1.1162 O   0  0
   -9.1005    0.7086   -1.8092 C   0  0
    6.9161   -2.9079   -2.3697 H   0  0
    8.3575   -3.6936   -1.6847 H   0  0
    8.3052   -1.9421   -1.8978 H   0  0
    7.7362   -2.2347    1.8252 H   0  0
    8.7960   -1.5412    0.6082 H   0  0
    8.8680   -3.2751    0.9304 H   0  0
    5.8884   -3.8839    1.1255 H   0  0
    7.0301   -4.8314    0.1467 H   0  0
    5.5533   -4.1556   -0.5759 H   0  0
    4.4652   -0.1011   -0.0590 H   0  0
    5.9580    2.1080    0.6070 H   0  0
    6.9166    1.2178   -1.9353 H   0  0
    3.8793    3.4388    0.3790 H   0  0
    3.1814    2.2406   -0.7291 H   0  0
    1.6118    2.8523    2.8252 H   0  0
    1.6379    3.3701    1.1507 H   0  0
    0.6026    0.4022    3.2699 H   0  0
   -1.5080   -0.8214    2.9303 H   0  0
   -2.3566    1.5958   -0.5437 H   0  0
   -0.2537    2.8130   -0.2089 H   0  0
   -5.0890   -1.7853   -0.5120 H   0  0
   -7.1834   -0.9979   -1.4850 H   0  0
   -6.5790    2.8692    0.3103 H   0  0
   -4.4443    2.0879    1.2831 H   0  0
   -9.9906    1.2949   -2.0568 H   0  0
   -9.4149   -0.1281   -1.1766 H   0  0
   -8.6618    0.3529   -2.7470 H   0  0
  1  2  1  0
  1  3  1  0
  1  4  1  0
  1  5  1  0
  2 32  1  0
  2 33  1  0
  2 34  1  0
  3 35  1  0
  3 36  1  0
  3 37  1  0
  4 38  1  0
  4 39  1  0
  4 40  1  0
  5  6  1  0
  6  7  2  0
  6  8  1  0
  8  9  1  0
  8 41  1  0
  9 10  1  0
  9 13  1  0
  9 42  1  0
 10 11  1  0
 10 12  2  0
 11 43  1  0
 13 14  1  0
 13 44  1  0
 13 45  1  0
 14 15  1  0
 15 16  1  0
 15 46  1  0
 15 47  1  0
 16 17  1  0
 16 21  2  0
 17 18  2  0
 17 48  1  0
 18 19  1  0
 18 49  1  0
 19 20  2  0
 19 22  1  0
 20 21  1  0
 20 50  1  0
 21 51  1  0
 22 23  2  0
 22 24  1  0
 24 25  1  0
 24 29  2  0
 25 26  2  0
 25 52  1  0
 26 27  1  0
 26 53  1  0
 27 28  2  0
 27 30  1  0
 28 29  1  0
 28 54  1  0
 29 55  1  0
 30 31  1  0
 31 56  1  0
 31 57  1  0
 31 58  1  0
M  END
> <Name>
CHEMBL5173134

> <Clean Energy>
17.8731

> <chembl_id>
CHEMBL5173134

> <chembl_pref_name>
None

> <efficacy>
0.12

> <Forcefield>
MMFF

> <ForcefieldBase>
MMFF

> <ForcefieldFFML>
<?xml version="1.0" encoding="UTF-8"?>
<!DOCTYPE ffml SYSTEM "Ffml.dtd">
<ffml version="1.0">
<forcefield name="MMFF" derivedFrom="MMFF" base="MMFF">
<atomTypes>
<atomType
name="C100"
element="C"
mass="12.011"
annotation=""/>
<atomType
name="O101"
element="O"
mass="16"
annotation=""/>
<atomType
name="N102"
element="N"
mass="14.007"
annotation=""/>
<atomType
name="S103"
element="S"
mass="32.066"
annotation=""/>
<atomType
name="H104"
element="H"
mass="1.008"
annotation=""/>
</atomTypes>
<parameters>
</parameters>
</forcefield>
</ffml>

> <Initial Potential Energy>
171.50141

> <Initial RMS Gradient>
33.33922

> <Minimization Criteria>
CONJUG> Minimization exiting with gradient tolerance ( 0.0100000) satisfied.

> <CHARMm Energy>
32.42079

> <Potential Energy>
32.42079

> <RMS Gradient>
0.00965

> <Bond Energy>
7.00001

> <Angle Energy>
21.90789

> <STRBend>
1.21778

> <Dihedral Energy>
11.76448

> <OOPLane>
0.67768

> <Van der Waals Energy>
58.30137

> <Electrostatic Energy>
-68.44841

> <Hydrogen Bond Energy>
0

> <Solvation Free Energy>
0

> <HasGasteigerCharges>
true

> <REMARK99>
REMARK  99  MacroMolecule created from Mol2 file
REMARK  99  CHEMBL5173134
REMARK  99  PROTEIN
REMARK  99  GASTEIGER
REMARK  99
REMARK  99

$$$$
CHEMBL4449760
  SciTegic05292516403D

 54 56  0  0  0  0            999 V2000
   29.9323  -15.9272    0.5428 C   0  0
   31.0637  -16.8884    0.1365 C   0  0
   31.4867  -17.7927    1.3027 C   0  0
   20.0193  -17.5177   -0.1210 C   0  0
   20.1810  -18.5158   -1.0858 C   0  0
   21.3056  -19.3457   -1.0799 C   0  0
   22.3007  -19.1772   -0.1113 C   0  0
   22.1558  -18.1638    0.8474 C   0  0
   21.0229  -17.3451    0.8424 C   0  0
   18.8861  -16.6842   -0.1859 N   0  0
   18.2623  -16.6861    0.8984 N   0  0
   17.1254  -15.8657    0.7970 C   0  0
   17.2123  -14.4872    1.0302 C   0  0
   16.0735  -13.6827    0.9581 C   0  0
   14.8381  -14.2558    0.6589 C   0  0
   14.7366  -15.6286    0.4362 C   0  0
   15.8768  -16.4301    0.5095 C   0  0
   23.5416  -20.0344   -0.1351 C   0  0
   24.6834  -19.3326   -0.8621 C   0  0
   25.8359  -20.1812   -0.8214 O   0  0
   27.0312  -19.5327   -0.9716 C   0  0
   28.1346  -20.1741   -0.4047 C   0  0
   29.3924  -19.5721   -0.4377 C   0  0
   29.5311  -18.3159   -1.0189 C   0  0
   28.4576  -17.7171   -1.6751 C   0  0
   27.2017  -18.3216   -1.6449 C   0  0
   30.7386  -17.6847   -1.0307 O   0  0
   32.2904  -16.0433   -0.2846 C   0  0
   32.7599  -15.2033    0.6773 O   0  0
   32.8464  -16.0911   -1.3742 O   0  0
   29.0348  -16.4682    0.8610 H   0  0
   29.6479  -15.2852   -0.2987 H   0  0
   30.2153  -15.2753    1.3750 H   0  0
   32.2330  -18.5250    0.9740 H   0  0
   30.6369  -18.3535    1.7045 H   0  0
   31.9159  -17.2277    2.1362 H   0  0
   19.4191  -18.6493   -1.8492 H   0  0
   21.3867  -20.1225   -1.8384 H   0  0
   22.9339  -17.9989    1.5920 H   0  0
   20.8981  -16.5702    1.5950 H   0  0
   18.1768  -14.0452    1.2655 H   0  0
   16.1429  -12.6123    1.1388 H   0  0
   13.9494  -13.6305    0.6047 H   0  0
   13.7685  -16.0705    0.2110 H   0  0
   15.8021  -17.5012    0.3408 H   0  0
   23.8426  -20.2822    0.8911 H   0  0
   23.3317  -21.0013   -0.6099 H   0  0
   24.4108  -19.1468   -1.9083 H   0  0
   24.8824  -18.3734   -0.3653 H   0  0
   28.0049  -21.1387    0.0786 H   0  0
   30.2489  -20.0803   -0.0047 H   0  0
   28.5952  -16.7744   -2.1973 H   0  0
   26.3775  -17.8296   -2.1521 H   0  0
   32.2637  -15.2145    1.5157 H   0  0
  1 31  1  0
  1 32  1  0
  1 33  1  0
  2  1  1  0
  2 28  1  0
  3  2  1  0
  3 34  1  0
  3 35  1  0
  3 36  1  0
  4  5  2  0
  4 10  1  0
  5  6  1  0
  5 37  1  0
  6  7  2  0
  6 38  1  0
  7  8  1  0
  7 18  1  0
  8  9  2  0
  8 39  1  0
  9  4  1  0
  9 40  1  0
 10 11  2  0
 11 12  1  0
 12 13  2  0
 13 14  1  0
 13 41  1  0
 14 15  2  0
 14 42  1  0
 15 16  1  0
 15 43  1  0
 16 17  2  0
 16 44  1  0
 17 12  1  0
 17 45  1  0
 18 19  1  0
 18 46  1  0
 18 47  1  0
 19 20  1  0
 19 48  1  0
 19 49  1  0
 20 21  1  0
 21 22  2  0
 22 23  1  0
 22 50  1  0
 23 24  2  0
 23 51  1  0
 24 25  1  0
 24 27  1  0
 25 26  2  0
 25 52  1  0
 26 21  1  0
 26 53  1  0
 27  2  1  0
 28 29  1  0
 28 30  2  0
 29 54  1  0
M  END
> <Name>
CHEMBL4449760

> <Clean Energy>
19.391701

> <chembl_id>
CHEMBL4449760

> <chembl_pref_name>
None

> <efficacy>
0.24

> <Forcefield>
MMFF

> <ForcefieldBase>
MMFF

> <ForcefieldFFML>
<?xml version="1.0" encoding="UTF-8"?>
<!DOCTYPE ffml SYSTEM "Ffml.dtd">
<ffml version="1.0">
<forcefield name="MMFF" derivedFrom="MMFF" base="MMFF">
<atomTypes>
<atomType
name="C100"
element="C"
mass="12.011"
annotation=""/>
<atomType
name="N101"
element="N"
mass="14.007"
annotation=""/>
<atomType
name="O102"
element="O"
mass="16"
annotation=""/>
<atomType
name="H103"
element="H"
mass="1.008"
annotation=""/>
</atomTypes>
<parameters>
</parameters>
</forcefield>
</ffml>

> <Initial Potential Energy>
166.43736

> <Initial RMS Gradient>
29.90912

> <Minimization Criteria>
CONJUG> Minimization exiting with gradient tolerance ( 0.0100000) satisfied.

> <CHARMm Energy>
96.84157

> <Potential Energy>
96.84157

> <RMS Gradient>
0.00983

> <Bond Energy>
6.09919

> <Angle Energy>
12.62694

> <STRBend>
0.59664

> <Dihedral Energy>
16.22579

> <OOPLane>
0.08517

> <Van der Waals Energy>
63.1645

> <Electrostatic Energy>
-1.95666

> <Hydrogen Bond Energy>
0

> <Solvation Free Energy>
0

> <HasGasteigerCharges>
true

> <REMARK99>
REMARK  99  MacroMolecule created from Mol2 file
REMARK  99  CHEMBL4449760
REMARK  99  PROTEIN
REMARK  99  GASTEIGER
REMARK  99
REMARK  99

$$$$
CHEMBL4293242
  SciTegic05292516403D

 66 71  0  0  0  0            999 V2000
   11.5197   -3.7374   -0.1565 C   0  0
   12.7167   -3.8901    0.5229 N   0  0
   11.4820   -2.5755   -0.7885 N   0  0
   12.6782   -1.9612   -0.5090 C   0  0
   13.4528   -2.7495    0.3284 C   0  0
   14.6598   -2.4582    0.8510 N   0  0
   15.1280   -1.2484    0.4648 C   0  0
   14.4464   -0.3721   -0.3860 C   0  0
   13.1826   -0.7120   -0.9008 C   0  0
   10.4214   -4.7543   -0.1337 C   0  0
    9.2872   -4.4210   -1.0912 C   0  0
   12.4453    0.2412   -1.7890 C   0  0
   16.4730   -0.8502    1.0017 C   0  0
   13.0735   -4.9540    1.4464 C   0  0
   14.2280   -5.8099    0.9959 C   0  0
   14.0449   -6.8927    0.1455 C   0  0
   15.1174   -7.7468   -0.1403 C   0  0
   15.5295   -5.5332    1.4249 C   0  0
   16.3982   -7.5925    0.4406 C   0  0
   16.6170   -6.3708    1.0940 C   0  0
   18.0006   -5.8251    1.3255 C   0  0
   17.4631   -8.6674    0.2547 C   0  0
   18.7831   -5.8773    0.0041 C   0  0
   19.5626   -7.1669   -0.0694 C   0  0
   18.9755   -8.4170    0.2080 C   0  0
   19.8887   -9.4373    0.5718 C   0  0
   21.2739   -9.3159    0.4128 C   0  0
   21.8109   -8.1321   -0.0560 C   0  0
   20.9610   -7.0533   -0.2645 C   0  0
   17.0048   -9.9562    0.1629 C   0  0
   17.7521  -11.0445   -0.5274 C   0  0
   15.7103  -10.5052    0.7303 C   0  0
   18.3226  -10.8024   -1.7080 N   0  0
   18.8885  -11.9477   -2.1109 C   0  0
   18.6512  -12.9059   -1.1586 O   0  0
   17.8824  -12.2663   -0.1362 N   0  0
   19.4967  -12.1228   -3.1538 O   0  0
   14.8941    0.5847   -0.6440 H   0  0
   10.8275   -5.7364   -0.4011 H   0  0
   10.0187   -4.8250    0.8831 H   0  0
    8.5205   -5.2021   -1.0549 H   0  0
    9.6489   -4.3470   -2.1224 H   0  0
    8.8141   -3.4682   -0.8292 H   0  0
   11.4972   -0.1845   -2.1319 H   0  0
   13.0479    0.4782   -2.6716 H   0  0
   12.2260    1.1672   -1.2480 H   0  0
   17.1742   -0.6825    0.1786 H   0  0
   16.8852   -1.6372    1.6421 H   0  0
   16.3869    0.0646    1.5959 H   0  0
   13.2986   -4.4789    2.4099 H   0  0
   12.1956   -5.5842    1.6246 H   0  0
   13.0694   -7.1057   -0.2844 H   0  0
   14.9156   -8.5684   -0.8240 H   0  0
   15.7124   -4.6217    1.9959 H   0  0
   17.9345   -4.7732    1.6331 H   0  0
   18.4918   -6.3616    2.1466 H   0  0
   18.1520   -5.7660   -0.8859 H   0  0
   19.4791   -5.0285   -0.0045 H   0  0
   19.5400  -10.3701    1.0094 H   0  0
   21.9247  -10.1514    0.6611 H   0  0
   22.8858   -8.0312   -0.1936 H   0  0
   21.3991   -6.0915   -0.5261 H   0  0
   15.8978  -11.4233    1.2993 H   0  0
   15.0020  -10.7463   -0.0688 H   0  0
   15.2346   -9.8268    1.4442 H   0  0
   18.3525   -9.9363   -2.2178 H   0  0
  1  2  1  0
  1 10  1  0
  2  5  1  0
  2 14  1  0
  3  1  2  0
  4  3  1  0
  4  5  2  0
  5  6  1  0
  6  7  2  0
  7  8  1  0
  7 13  1  0
  8  9  2  0
  8 38  1  0
  9  4  1  0
  9 12  1  0
 10 11  1  0
 10 39  1  0
 10 40  1  0
 11 41  1  0
 11 42  1  0
 11 43  1  0
 12 44  1  0
 12 45  1  0
 12 46  1  0
 13 47  1  0
 13 48  1  0
 13 49  1  0
 14 15  1  0
 14 50  1  0
 14 51  1  0
 15 16  2  0
 16 17  1  0
 16 52  1  0
 17 19  2  0
 17 53  1  0
 18 15  1  0
 18 54  1  0
 19 20  1  0
 19 22  1  0
 20 18  2  0
 20 21  1  0
 21 23  1  0
 21 55  1  0
 21 56  1  0
 22 25  1  0
 22 30  2  0
 23 24  1  0
 23 57  1  0
 23 58  1  0
 24 25  2  0
 25 26  1  0
 26 27  2  0
 26 59  1  0
 27 28  1  0
 27 60  1  0
 28 29  2  0
 28 61  1  0
 29 24  1  0
 29 62  1  0
 30 31  1  0
 30 32  1  0
 31 33  1  0
 32 63  1  0
 32 64  1  0
 32 65  1  0
 33 34  1  0
 33 66  1  0
 34 35  1  0
 34 37  2  0
 35 36  1  0
 36 31  2  0
M  END
> <Name>
CHEMBL4293242

> <Clean Energy>
104.976997

> <chembl_id>
CHEMBL4293242

> <chembl_pref_name>
None

> <efficacy>
0.014245014

> <Forcefield>
MMFF

> <ForcefieldBase>
MMFF

> <ForcefieldFFML>
<?xml version="1.0" encoding="UTF-8"?>
<!DOCTYPE ffml SYSTEM "Ffml.dtd">
<ffml version="1.0">
<forcefield name="MMFF" derivedFrom="MMFF" base="MMFF">
<atomTypes>
<atomType
name="C100"
element="C"
mass="12.011"
annotation=""/>
<atomType
name="N101"
element="N"
mass="14.007"
annotation=""/>
<atomType
name="O102"
element="O"
mass="16"
annotation=""/>
<atomType
name="H103"
element="H"
mass="1.008"
annotation=""/>
</atomTypes>
<parameters>
</parameters>
</forcefield>
</ffml>

> <Initial Potential Energy>
244.81903

> <Initial RMS Gradient>
31.08248

> <Minimization Criteria>
STEEPD> Minimization exiting with gradient tolerance ( 3.0000000) satisfied.

> <CHARMm Energy>
97.43201

> <Potential Energy>
97.43201

> <RMS Gradient>
0.16079

> <Bond Energy>
13.78447

> <Angle Energy>
17.52081

> <STRBend>
0.42256

> <Dihedral Energy>
22.20398

> <OOPLane>
0.45294

> <Van der Waals Energy>
79.73542

> <Electrostatic Energy>
-36.68817

> <Hydrogen Bond Energy>
0

> <Solvation Free Energy>
0

> <HasGasteigerCharges>
true

> <REMARK99>
REMARK  99  MacroMolecule created from Mol2 file
REMARK  99  CHEMBL4293242
REMARK  99  PROTEIN
REMARK  99  GASTEIGER
REMARK  99
REMARK  99

$$$$
CHEMBL4762110
  SciTegic05292516403D

 48 51  0  0  0  0            999 V2000
   28.2860   -7.4643   -0.8014 C   0  0
   27.9090   -8.6776   -0.2239 C   0  0
   28.8510   -9.6751    0.0665 C   0  0
   29.6197   -7.2278   -1.1547 C   0  0
   30.5715   -8.2289   -0.9086 C   0  0
   30.1756   -9.4228   -0.3133 C   0  0
   31.3337  -10.1607   -0.2366 N   0  0
   32.3660   -9.3995   -0.7455 C   0  0
   31.9168   -8.2323   -1.1696 N   0  0
   31.4401  -11.5031    0.2849 C   0  0
   33.7865   -9.8623   -0.8243 C   0  0
   34.1669  -10.2641    0.4924 O   0  0
   35.4386  -10.7399    0.6520 C   0  0
   35.7919  -11.0249    1.9744 C   0  0
   37.0493  -11.5453    2.2830 C   0  0
   37.9727  -11.7809    1.2655 C   0  0
   37.6303  -11.4810   -0.0576 C   0  0
   36.3615  -10.9718   -0.3665 C   0  0
   38.5605  -11.7454   -1.1775 C   0  0
   39.8385  -11.4158   -0.9019 O   0  0
   38.1820  -12.1803   -2.2511 O   0  0
   26.5771   -8.8185    0.1003 O   0  0
   25.9463   -9.9895   -0.2518 C   0  0
   24.9473  -10.4769    0.5996 C   0  0
   24.2706  -11.6452    0.2331 C   0  0
   24.6063  -12.2681   -0.9600 C   0  0
   25.5554  -11.8130   -1.8047 N   0  0
   26.1967  -10.6776   -1.4371 C   0  0
   24.6002   -9.7656    1.8745 C   0  0
   27.5393   -6.6972   -0.9888 H   0  0
   28.5627  -10.6018    0.5492 H   0  0
   29.9190   -6.2933   -1.6166 H   0  0
   32.1794  -12.0615   -0.2942 H   0  0
   30.4762  -12.0099    0.1968 H   0  0
   31.7376  -11.4399    1.3343 H   0  0
   33.8468  -10.7027   -1.5255 H   0  0
   34.4215   -9.0371   -1.1675 H   0  0
   35.0651  -10.8530    2.7668 H   0  0
   37.2983  -11.7806    3.3154 H   0  0
   38.9328  -12.2284    1.5105 H   0  0
   36.1154  -10.7844   -1.4086 H   0  0
   39.9570  -10.9116   -0.0752 H   0  0
   23.4888  -12.0653    0.8583 H   0  0
   24.1023  -13.1767   -1.2768 H   0  0
   26.9377  -10.3297   -2.1521 H   0  0
   23.8242  -10.2995    2.4332 H   0  0
   24.2240   -8.7608    1.6572 H   0  0
   25.4815   -9.6917    2.5200 H   0  0
  1  2  2  0
  1 30  1  0
  2  3  1  0
  2 22  1  0
  3  6  2  0
  3 31  1  0
  4  1  1  0
  4 32  1  0
  5  4  2  0
  5  6  1  0
  6  7  1  0
  7  8  1  0
  7 10  1  0
  8  9  2  0
  8 11  1  0
  9  5  1  0
 10 33  1  0
 10 34  1  0
 10 35  1  0
 11 12  1  0
 11 36  1  0
 11 37  1  0
 12 13  1  0
 13 14  2  0
 14 15  1  0
 14 38  1  0
 15 16  2  0
 15 39  1  0
 16 17  1  0
 16 40  1  0
 17 18  2  0
 17 19  1  0
 18 13  1  0
 18 41  1  0
 19 20  1  0
 19 21  2  0
 20 42  1  0
 22 23  1  0
 23 24  2  0
 24 25  1  0
 24 29  1  0
 25 26  2  0
 25 43  1  0
 26 27  1  0
 26 44  1  0
 27 28  2  0
 28 23  1  0
 28 45  1  0
 29 46  1  0
 29 47  1  0
 29 48  1  0
M  END
> <Name>
CHEMBL4762110

> <Clean Energy>
51.547298

> <chembl_id>
CHEMBL4762110

> <chembl_pref_name>
None

> <efficacy>
0.45

> <Forcefield>
MMFF

> <ForcefieldBase>
MMFF

> <ForcefieldFFML>
<?xml version="1.0" encoding="UTF-8"?>
<!DOCTYPE ffml SYSTEM "Ffml.dtd">
<ffml version="1.0">
<forcefield name="MMFF" derivedFrom="MMFF" base="MMFF">
<atomTypes>
<atomType
name="C100"
element="C"
mass="12.011"
annotation=""/>
<atomType
name="N101"
element="N"
mass="14.007"
annotation=""/>
<atomType
name="O102"
element="O"
mass="16"
annotation=""/>
<atomType
name="H103"
element="H"
mass="1.008"
annotation=""/>
</atomTypes>
<parameters>
</parameters>
</forcefield>
</ffml>

> <Initial Potential Energy>
192.10293

> <Initial RMS Gradient>
33.63975

> <Minimization Criteria>
STEEPD> Minimization exiting with gradient tolerance ( 3.0000000) satisfied.

> <CHARMm Energy>
77.84071

> <Potential Energy>
77.84071

> <RMS Gradient>
0.03225

> <Bond Energy>
4.47071

> <Angle Energy>
16.21537

> <STRBend>
0.34296

> <Dihedral Energy>
9.07844

> <OOPLane>
0.10223

> <Van der Waals Energy>
60.06426

> <Electrostatic Energy>
-12.43327

> <Hydrogen Bond Energy>
0

> <Solvation Free Energy>
0

> <HasGasteigerCharges>
true

> <REMARK99>
REMARK  99  MacroMolecule created from Mol2 file
REMARK  99  CHEMBL4762110
REMARK  99  PROTEIN
REMARK  99  GASTEIGER
REMARK  99
REMARK  99

$$$$
CHEMBL4289449
  SciTegic05292516403D

 64 69  0  0  0  0            999 V2000
    9.1840  -20.3595   -0.9762 C   0  0
    9.8862  -19.9756    0.2103 O   0  0
    8.5815  -22.7270    0.3776 C   0  0
    7.4360  -21.8710   -0.0052 C   0  0
    7.7380  -20.6989   -0.7089 C   0  0
    6.6954  -19.8653   -1.1205 C   0  0
    5.3588  -20.1718   -0.8085 C   0  0
    5.0786  -21.3375   -0.0828 C   0  0
    6.1132  -22.1799    0.3258 C   0  0
   10.1313  -20.8993    1.1963 C   0  0
    9.5714  -22.1854    1.3400 C   0  0
    9.8928  -22.9478    2.4774 C   0  0
   10.7821  -22.4625    3.4342 C   0  0
   11.3535  -21.2065    3.2768 C   0  0
   11.0218  -20.4272    2.1699 C   0  0
    8.8377  -23.8652   -0.3162 C   0  0
    7.9400  -24.2217   -1.4319 C   0  0
   10.0547  -24.7385   -0.2274 C   0  0
    4.2495  -19.2323   -1.2198 C   0  0
    4.3394  -17.9782   -0.4945 N   0  0
    8.0399  -23.8399   -2.6570 N   0  0
    6.8999  -24.4096   -3.3062 O   0  0
    6.2139  -25.0930   -2.3341 C   0  0
    6.8833  -24.9862   -1.1785 N   0  0
    5.1701  -25.7049   -2.4939 O   0  0
    4.2314  -16.4798    1.1423 N   0  0
    3.8663  -17.6955    0.7715 C   0  0
    4.9438  -15.9620    0.0886 C   0  0
    4.9929  -16.8675   -0.9584 C   0  0
    5.5878  -16.7182   -2.1573 N   0  0
    6.1967  -15.5177   -2.3000 C   0  0
    6.2351  -14.5303   -1.3087 C   0  0
    5.5985  -14.7324   -0.0701 C   0  0
    5.6382  -13.6715    0.9839 C   0  0
    6.8700  -15.2608   -3.6180 C   0  0
    3.0892  -18.6655    1.6037 C   0  0
    2.3641  -17.9922    2.7595 C   0  0
    9.2358  -19.5014   -1.6567 H   0  0
    9.7121  -21.1704   -1.4937 H   0  0
    6.9293  -18.9566   -1.6738 H   0  0
    4.0548  -21.5928    0.1806 H   0  0
    5.8812  -23.0660    0.9089 H   0  0
    9.4442  -23.9267    2.6348 H   0  0
   11.0214  -23.0623    4.3073 H   0  0
   12.0459  -20.8291    4.0226 H   0  0
   11.4530  -19.4338    2.0656 H   0  0
   10.3498  -25.1029   -1.2179 H   0  0
    9.8461  -25.6092    0.4028 H   0  0
   10.9260  -24.2159    0.1770 H   0  0
    4.3057  -19.0276   -2.2951 H   0  0
    3.2606  -19.6644   -1.0356 H   0  0
    6.5808  -25.3838   -0.3086 H   0  0
    6.7527  -13.5924   -1.4991 H   0  0
    5.1032  -13.9845    1.8860 H   0  0
    5.1696  -12.7545    0.6133 H   0  0
    6.6743  -13.4551    1.2634 H   0  0
    6.4244  -14.3884   -4.1062 H   0  0
    6.7582  -16.1201   -4.2872 H   0  0
    7.9396  -15.0833   -3.4678 H   0  0
    2.3456  -19.1801    0.9857 H   0  0
    3.7718  -19.4231    2.0037 H   0  0
    1.7959  -18.7324    3.3319 H   0  0
    1.6640  -17.2310    2.3982 H   0  0
    3.0691  -17.5060    3.4426 H   0  0
  1  2  1  0
  1  5  1  0
  1 38  1  0
  1 39  1  0
  2 10  1  0
  3 16  2  0
  4  3  1  0
  4  5  2  0
  5  6  1  0
  6  7  2  0
  6 40  1  0
  7  8  1  0
  7 19  1  0
  8  9  2  0
  8 41  1  0
  9  4  1  0
  9 42  1  0
 10 11  2  0
 11  3  1  0
 11 12  1  0
 12 13  2  0
 12 43  1  0
 13 14  1  0
 13 44  1  0
 14 15  2  0
 14 45  1  0
 15 10  1  0
 15 46  1  0
 16 17  1  0
 16 18  1  0
 17 21  2  0
 18 47  1  0
 18 48  1  0
 18 49  1  0
 19 20  1  0
 19 50  1  0
 19 51  1  0
 20 29  1  0
 21 22  1  0
 22 23  1  0
 23 24  1  0
 23 25  2  0
 24 17  1  0
 24 52  1  0
 26 27  2  0
 27 20  1  0
 27 36  1  0
 28 26  1  0
 28 29  2  0
 29 30  1  0
 30 31  2  0
 31 32  1  0
 31 35  1  0
 32 33  2  0
 32 53  1  0
 33 28  1  0
 33 34  1  0
 34 54  1  0
 34 55  1  0
 34 56  1  0
 35 57  1  0
 35 58  1  0
 35 59  1  0
 36 37  1  0
 36 60  1  0
 36 61  1  0
 37 62  1  0
 37 63  1  0
 37 64  1  0
M  END
> <Name>
CHEMBL4289449

> <Clean Energy>
116.134003

> <chembl_id>
CHEMBL4289449

> <chembl_pref_name>
None

> <efficacy>
0.180436847

> <Forcefield>
MMFF

> <ForcefieldBase>
MMFF

> <ForcefieldFFML>
<?xml version="1.0" encoding="UTF-8"?>
<!DOCTYPE ffml SYSTEM "Ffml.dtd">
<ffml version="1.0">
<forcefield name="MMFF" derivedFrom="MMFF" base="MMFF">
<atomTypes>
<atomType
name="C100"
element="C"
mass="12.011"
annotation=""/>
<atomType
name="O101"
element="O"
mass="16"
annotation=""/>
<atomType
name="N102"
element="N"
mass="14.007"
annotation=""/>
<atomType
name="H103"
element="H"
mass="1.008"
annotation=""/>
</atomTypes>
<parameters>
</parameters>
</forcefield>
</ffml>

> <Initial Potential Energy>
355.91796

> <Initial RMS Gradient>
41.07271

> <Minimization Criteria>
STEEPD> Minimization exiting with gradient tolerance ( 3.0000000) satisfied.

> <CHARMm Energy>
86.30084

> <Potential Energy>
86.30084

> <RMS Gradient>
0.0723

> <Bond Energy>
8.35115

> <Angle Energy>
23.51447

> <STRBend>
-0.3555

> <Dihedral Energy>
18.67219

> <OOPLane>
0.3532

> <Van der Waals Energy>
68.18594

> <Electrostatic Energy>
-32.42061

> <Hydrogen Bond Energy>
0

> <Solvation Free Energy>
0

> <HasGasteigerCharges>
true

> <REMARK99>
REMARK  99  MacroMolecule created from Mol2 file
REMARK  99  CHEMBL4289449
REMARK  99  PROTEIN
REMARK  99  GASTEIGER
REMARK  99
REMARK  99

$$$$
CHEMBL4242324
  SciTegic05292516403D

 72 76  0  0  0  0            999 V2000
   26.5985   -4.6001   -1.0582 C   0  0
   26.5173   -5.8147   -0.3820 C   0  0
   27.6209   -6.2690    0.3358 C   0  0
   28.8028   -5.5090    0.3761 C   0  0
   28.9111   -4.2770   -0.2960 C   0  0
   27.7811   -3.8433   -1.0151 C   0  0
   30.1541   -3.4656   -0.2434 C   0  0
   31.4231   -4.0357   -0.4491 C   0  0
   32.6055   -3.2682   -0.3958 C   0  0
   32.5493   -1.9011   -0.1313 C   0  0
   31.2951   -1.3185    0.0705 C   0  0
   30.1187   -2.0862    0.0165 C   0  0
   33.6100   -1.0348   -0.0407 O   0  0
   34.9528   -1.5484   -0.1489 C   0  0  1  0  0  0
   35.8888   -0.3861   -0.5426 C   0  0
   35.4044   -2.1229    1.2068 C   0  0
   37.0868   -0.5087   -0.7847 O   0  0
   35.2601    0.8172   -0.6000 O   0  0
   36.6947   -2.9028    1.1099 C   0  0
   37.8642   -2.4351    1.7200 C   0  0
   39.0932   -3.0852    1.5106 C   0  0
   39.1940   -4.2197    0.6888 C   0  0
   37.9972   -4.7022    0.1264 C   0  0
   36.7665   -4.0669    0.3408 C   0  0
   40.4938   -4.8733    0.3903 C   0  0
   40.5898   -6.2666    0.2722 C   0  0
   41.7893   -6.8848   -0.0981 C   0  0
   42.9475   -6.1420   -0.3391 C   0  0
   42.8899   -4.7623   -0.1906 C   0  0
   41.6742   -4.1387    0.1625 C   0  0
   44.0165   -6.8918   -0.7333 O   0  0
   45.3444   -6.3192   -0.8594 C   0  0  2  0  0  0
   46.0420   -7.1490   -1.9421 C   0  0
   45.4389   -8.3441   -2.1869 O   0  0
   47.0677   -6.8269   -2.5266 O   0  0
   46.0680   -6.4647    0.4852 C   0  0
   47.4879   -5.9515    0.5263 C   0  0
   47.7537   -4.5843    0.6760 C   0  0
   49.0685   -4.1154    0.7082 C   0  0
   50.1312   -5.0081    0.5892 C   0  0
   49.8808   -6.3699    0.4387 C   0  0
   48.5668   -6.8401    0.4086 C   0  0
   25.7462   -4.2341   -1.6249 H   0  0
   25.6003   -6.4038   -0.4136 H   0  0
   27.5690   -7.2141    0.8711 H   0  0
   29.6402   -5.8874    0.9591 H   0  0
   27.8149   -2.9051   -1.5659 H   0  0
   31.5070   -5.0990   -0.6701 H   0  0
   33.5431   -3.7864   -0.5683 H   0  0
   31.2187   -0.2545    0.2822 H   0  0
   29.1656   -1.5902    0.1965 H   0  0
   35.0125   -2.2579   -0.9822 H   0  0
   35.5063   -1.3084    1.9365 H   0  0
   34.6377   -2.7847    1.6274 H   0  0
   34.3041    0.7178   -0.4002 H   0  0
   37.8513   -1.5321    2.3260 H   0  0
   39.9822   -2.6751    1.9871 H   0  0
   38.0099   -5.5696   -0.5308 H   0  0
   35.8848   -4.4764   -0.1433 H   0  0
   39.7204   -6.8961    0.4558 H   0  0
   41.8011   -7.9655   -0.2039 H   0  0
   43.7513   -4.1272   -0.3656 H   0  0
   41.6531   -3.0512    0.2221 H   0  0
   45.3035   -5.2909   -1.2315 H   0  0
   44.5807   -8.3637   -1.7075 H   0  0
   45.4914   -5.9535    1.2678 H   0  0
   46.0571   -7.5201    0.7923 H   0  0
   46.9388   -3.8704    0.7704 H   0  0
   49.2632   -3.0523    0.8224 H   0  0
   51.1551   -4.6436    0.6068 H   0  0
   50.7101   -7.0658    0.3351 H   0  0
   48.3924   -7.9058    0.2771 H   0  0
  1  2  2  0
  1 43  1  0
  2  3  1  0
  2 44  1  0
  3  4  2  0
  3 45  1  0
  4  5  1  0
  4 46  1  0
  5  6  2  0
  5  7  1  0
  6  1  1  0
  6 47  1  0
  7  8  2  0
  8  9  1  0
  8 48  1  0
  9 10  2  0
  9 49  1  0
 10 11  1  0
 10 13  1  0
 11 12  2  0
 11 50  1  0
 12  7  1  0
 12 51  1  0
 13 14  1  0
 14 15  1  0
 14 16  1  0
 14 52  1  0
 15 17  2  0
 15 18  1  0
 16 19  1  0
 16 53  1  0
 16 54  1  0
 18 55  1  0
 19 20  2  0
 20 21  1  0
 20 56  1  0
 21 22  2  0
 21 57  1  0
 22 23  1  0
 22 25  1  0
 23 24  2  0
 23 58  1  0
 24 19  1  0
 24 59  1  0
 25 26  2  0
 26 27  1  0
 26 60  1  0
 27 28  2  0
 27 61  1  0
 28 29  1  0
 28 31  1  0
 29 30  2  0
 29 62  1  0
 30 25  1  0
 30 63  1  0
 31 32  1  0
 32 33  1  0
 32 36  1  0
 32 64  1  0
 33 34  1  0
 33 35  2  0
 34 65  1  0
 36 37  1  0
 36 66  1  0
 36 67  1  0
 37 38  2  0
 38 39  1  0
 38 68  1  0
 39 40  2  0
 39 69  1  0
 40 41  1  0
 40 70  1  0
 41 42  2  0
 41 71  1  0
 42 37  1  0
 42 72  1  0
M  END
> <Name>
CHEMBL4242324

> <Clean Energy>
41.393902

> <chembl_id>
CHEMBL4242324

> <chembl_pref_name>
None

> <efficacy>
0.27

> <Forcefield>
MMFF

> <ForcefieldBase>
MMFF

> <ForcefieldFFML>
<?xml version="1.0" encoding="UTF-8"?>
<!DOCTYPE ffml SYSTEM "Ffml.dtd">
<ffml version="1.0">
<forcefield name="MMFF" derivedFrom="MMFF" base="MMFF">
<atomTypes>
<atomType
name="C100"
element="C"
mass="12.011"
annotation=""/>
<atomType
name="O101"
element="O"
mass="16"
annotation=""/>
<atomType
name="H102"
element="H"
mass="1.008"
annotation=""/>
</atomTypes>
<parameters>
</parameters>
</forcefield>
</ffml>

> <Initial Potential Energy>
285.55196

> <Initial RMS Gradient>
33.1887

> <Minimization Criteria>
CONJUG> Minimization exiting with gradient tolerance ( 0.0100000) satisfied.

> <CHARMm Energy>
116.89355

> <Potential Energy>
116.89355

> <RMS Gradient>
0.00922

> <Bond Energy>
13.34028

> <Angle Energy>
24.36108

> <STRBend>
-0.21032

> <Dihedral Energy>
8.11517

> <OOPLane>
0.11172

> <Van der Waals Energy>
93.36129

> <Electrostatic Energy>
-22.18567

> <Hydrogen Bond Energy>
0

> <Solvation Free Energy>
0

> <HasGasteigerCharges>
true

> <REMARK99>
REMARK  99  MacroMolecule created from Mol2 file
REMARK  99  CHEMBL4242324
REMARK  99  PROTEIN
REMARK  99  GASTEIGER
REMARK  99
REMARK  99

$$$$
CHEMBL5083326
  SciTegic05292516403D

 49 52  0  0  0  0            999 V2000
   -0.4143  -15.1887    2.3186 F   0  0
   -1.1039  -16.1985    1.7158 C   0  0
   -0.5696  -17.3474    2.2243 F   0  0
   -2.1350  -16.1562   -0.5769 C   0  0
   -2.0648  -16.0970   -1.9659 C   0  0
   -0.8203  -16.0387   -2.5909 C   0  0
    0.3539  -16.0367   -1.8331 C   0  0
    0.3153  -16.1124   -0.4286 C   0  0
   -0.9587  -16.1571    0.2061 C   0  0
   -2.3822  -16.1274    2.1743 F   0  0
    1.6122  -15.9939    0.3667 C   0  0
    2.7473  -16.7694   -0.1346 N   0  0
    4.0386  -16.4080    0.2334 C   0  0
    5.1966  -17.2911   -0.1316 C   0  0
    4.2695  -15.3753    0.8584 O   0  0
    5.0611  -18.6799   -0.3689 C   0  0
    6.1888  -19.4911   -0.6220 C   0  0
    6.4827  -16.7045   -0.1466 C   0  0
    7.5688  -17.5199   -0.3999 C   0  0
    7.4315  -18.8878   -0.6316 C   0  0
    8.7193  -19.4117   -0.8371 N   0  0
    9.6680  -18.3658   -0.7386 C   0  0
    8.9258  -17.1995   -0.4644 N   0  0
   10.8806  -18.4329   -0.8576 O   0  0
    9.0754  -20.7824   -1.1084 C   0  0
    9.2345  -21.6702    0.1099 C   0  0
    9.2645  -21.1679    1.4202 C   0  0
    9.3876  -22.0250    2.5151 C   0  0
    9.5085  -23.3972    2.3155 C   0  0
    9.5293  -23.9082    1.0208 C   0  0
    9.3927  -23.0556   -0.0767 C   0  0
    9.7105  -25.6013    0.7703 Cl  0  0
   -3.1162  -16.1884   -0.1015 H   0  0
   -2.9773  -16.0835   -2.5589 H   0  0
   -0.7811  -15.9665   -3.6765 H   0  0
    1.3101  -15.9504   -2.3479 H   0  0
    1.8860  -14.9333    0.4133 H   0  0
    1.4745  -16.3419    1.3941 H   0  0
    2.5680  -17.6165   -0.6535 H   0  0
    4.0861  -19.1570   -0.3175 H   0  0
    6.0769  -20.5581   -0.7818 H   0  0
    6.6151  -15.6462    0.0540 H   0  0
    9.3642  -16.2983   -0.3488 H   0  0
    8.3157  -21.2055   -1.7764 H   0  0
   10.0313  -20.7848   -1.6463 H   0  0
    9.1989  -20.0993    1.6105 H   0  0
    9.3818  -21.6165    3.5230 H   0  0
    9.5941  -24.0557    3.1734 H   0  0
    9.4179  -23.4760   -1.0806 H   0  0
  2  1  1  0
  2 10  1  0
  3  2  1  0
  4  5  2  0
  4 33  1  0
  5  6  1  0
  5 34  1  0
  6  7  2  0
  6 35  1  0
  7  8  1  0
  7 36  1  0
  8  9  2  0
  8 11  1  0
  9  2  1  0
  9  4  1  0
 11 12  1  0
 11 37  1  0
 11 38  1  0
 12 13  1  0
 12 39  1  0
 13 14  1  0
 13 15  2  0
 14 16  2  0
 16 17  1  0
 16 40  1  0
 17 20  2  0
 17 41  1  0
 18 14  1  0
 18 42  1  0
 19 18  2  0
 19 20  1  0
 20 21  1  0
 21 22  1  0
 21 25  1  0
 22 23  1  0
 22 24  2  0
 23 19  1  0
 23 43  1  0
 25 26  1  0
 25 44  1  0
 25 45  1  0
 26 27  2  0
 27 28  1  0
 27 46  1  0
 28 29  2  0
 28 47  1  0
 29 30  1  0
 29 48  1  0
 30 31  2  0
 30 32  1  0
 31 26  1  0
 31 49  1  0
M  END
> <Name>
CHEMBL5083326

> <Clean Energy>
47.567101

> <chembl_id>
CHEMBL5083326

> <chembl_pref_name>
None

> <efficacy>
0.294396961

> <Forcefield>
MMFF

> <ForcefieldBase>
MMFF

> <ForcefieldFFML>
<?xml version="1.0" encoding="UTF-8"?>
<!DOCTYPE ffml SYSTEM "Ffml.dtd">
<ffml version="1.0">
<forcefield name="MMFF" derivedFrom="MMFF" base="MMFF">
<atomTypes>
<atomType
name="F100"
element="F"
mass="18.998"
annotation=""/>
<atomType
name="C101"
element="C"
mass="12.011"
annotation=""/>
<atomType
name="N102"
element="N"
mass="14.007"
annotation=""/>
<atomType
name="O103"
element="O"
mass="16"
annotation=""/>
<atomType
name="Cl104"
element="Cl"
mass="35.453"
annotation=""/>
<atomType
name="H105"
element="H"
mass="1.008"
annotation=""/>
</atomTypes>
<parameters>
</parameters>
</forcefield>
</ffml>

> <Initial Potential Energy>
406.74733

> <Initial RMS Gradient>
232.76873

> <Minimization Criteria>
CONJUG> Minimization exiting with gradient tolerance ( 0.0100000) satisfied.

> <CHARMm Energy>
9.35936

> <Potential Energy>
9.35936

> <RMS Gradient>
0.00988

> <Bond Energy>
9.53793

> <Angle Energy>
29.46266

> <STRBend>
-1.62543

> <Dihedral Energy>
-0.15088

> <OOPLane>
0.16728

> <Van der Waals Energy>
53.56216

> <Electrostatic Energy>
-81.59435

> <Hydrogen Bond Energy>
0

> <Solvation Free Energy>
0

> <HasGasteigerCharges>
true

> <REMARK99>
REMARK  99  MacroMolecule created from Mol2 file
REMARK  99  CHEMBL5083326
REMARK  99  PROTEIN
REMARK  99  GASTEIGER
REMARK  99
REMARK  99

$$$$
CHEMBL5075710
  SciTegic05292516403D

 57 59  0  0  0  0            999 V2000
   29.3773   -4.1215    0.1946 C   0  0
   29.8712   -4.7025   -1.1363 C   0  0
   29.7039   -6.2230   -1.2641 C   0  0
   40.2595   -4.7559    2.5520 C   0  0
   39.1737   -4.8822    1.6749 C   0  0
   39.2764   -4.4164    0.3604 C   0  0
   40.4599   -3.8290   -0.0860 C   0  0
   41.5667   -3.7257    0.7619 C   0  0
   41.4533   -4.1765    2.0787 C   0  0
   42.7882   -3.1792    0.3338 N   0  0
   43.2007   -3.7922   -0.6744 N   0  0
   44.4610   -3.3268   -1.0837 C   0  0
   45.4534   -4.2705   -1.3668 C   0  0
   46.7142   -3.8663   -1.8019 C   0  0
   46.9905   -2.5099   -1.9675 C   0  0
   46.0077   -1.5590   -1.6966 C   0  0
   44.7463   -1.9666   -1.2635 C   0  0
   38.0712   -5.5381    2.1424 O   0  0
   36.7982   -5.0681    1.6795 C   0  0
   36.1920   -6.0770    0.7042 C   0  0
   34.8548   -5.6259    0.1745 C   0  0
   34.7739   -4.8335   -0.9732 C   0  0
   33.5295   -4.4102   -1.4493 C   0  0
   32.3422   -4.7686   -0.8015 C   0  0
   32.4244   -5.5403    0.3523 C   0  0
   33.6707   -5.9667    0.8366 C   0  0
   31.2227   -4.2757   -1.3979 O   0  0
   29.0186   -4.0591   -2.2717 C   0  0
   27.6768   -4.2729   -2.1642 O   0  0
   29.4547   -3.4117   -3.2146 O   0  0
   40.2101   -5.2476    3.9765 C   0  0
   40.9335   -4.4466    4.8174 F   0  0
   40.7558   -6.4898    4.1181 F   0  0
   38.9657   -5.3040    4.5249 F   0  0
   30.0054   -4.4018    1.0416 H   0  0
   28.3565   -4.4375    0.4310 H   0  0
   29.3878   -3.0253    0.1589 H   0  0
   30.1571   -6.5815   -2.1958 H   0  0
   28.6522   -6.5266   -1.2678 H   0  0
   30.1797   -6.7711   -0.4486 H   0  0
   38.4602   -4.5224   -0.3478 H   0  0
   40.5372   -3.4754   -1.1119 H   0  0
   42.3153   -4.0877    2.7398 H   0  0
   45.2325   -5.3278   -1.2415 H   0  0
   47.4806   -4.6089   -2.0071 H   0  0
   47.9739   -2.1938   -2.3050 H   0  0
   46.2243   -0.5014   -1.8191 H   0  0
   43.9786   -1.2239   -1.0626 H   0  0
   36.1560   -4.9903    2.5653 H   0  0
   36.8464   -4.0555    1.2587 H   0  0
   36.8763   -6.2655   -0.1320 H   0  0
   36.0895   -7.0517    1.1990 H   0  0
   35.6742   -4.5397   -1.5092 H   0  0
   33.4800   -3.7957   -2.3461 H   0  0
   31.5515   -5.8319    0.9204 H   0  0
   33.7034   -6.5722    1.7409 H   0  0
   27.4032   -4.7997   -1.3925 H   0  0
  1 35  1  0
  1 36  1  0
  1 37  1  0
  2  1  1  0
  2 28  1  0
  3  2  1  0
  3 38  1  0
  3 39  1  0
  3 40  1  0
  4  5  2  0
  4 31  1  0
  5  6  1  0
  5 18  1  0
  6  7  2  0
  6 41  1  0
  7  8  1  0
  7 42  1  0
  8  9  2  0
  8 10  1  0
  9  4  1  0
  9 43  1  0
 10 11  2  0
 11 12  1  0
 12 13  2  0
 13 14  1  0
 13 44  1  0
 14 15  2  0
 14 45  1  0
 15 16  1  0
 15 46  1  0
 16 17  2  0
 16 47  1  0
 17 12  1  0
 17 48  1  0
 18 19  1  0
 19 20  1  0
 19 49  1  0
 19 50  1  0
 20 21  1  0
 20 51  1  0
 20 52  1  0
 21 22  2  0
 22 23  1  0
 22 53  1  0
 23 24  2  0
 23 54  1  0
 24 25  1  0
 24 27  1  0
 25 26  2  0
 25 55  1  0
 26 21  1  0
 26 56  1  0
 27  2  1  0
 28 29  1  0
 28 30  2  0
 29 57  1  0
 31 32  1  0
 31 33  1  0
 31 34  1  0
M  END
> <Name>
CHEMBL5075710

> <Clean Energy>
47.124199

> <chembl_id>
CHEMBL5075710

> <chembl_pref_name>
None

> <efficacy>
0.32288699

> <Forcefield>
MMFF

> <ForcefieldBase>
MMFF

> <ForcefieldFFML>
<?xml version="1.0" encoding="UTF-8"?>
<!DOCTYPE ffml SYSTEM "Ffml.dtd">
<ffml version="1.0">
<forcefield name="MMFF" derivedFrom="MMFF" base="MMFF">
<atomTypes>
<atomType
name="C100"
element="C"
mass="12.011"
annotation=""/>
<atomType
name="N101"
element="N"
mass="14.007"
annotation=""/>
<atomType
name="O102"
element="O"
mass="16"
annotation=""/>
<atomType
name="F103"
element="F"
mass="18.998"
annotation=""/>
<atomType
name="H104"
element="H"
mass="1.008"
annotation=""/>
</atomTypes>
<parameters>
</parameters>
</forcefield>
</ffml>

> <Initial Potential Energy>
210.31117

> <Initial RMS Gradient>
30.59449

> <Minimization Criteria>
STEEPD> Minimization exiting with gradient tolerance ( 3.0000000) satisfied.

> <CHARMm Energy>
111.17748

> <Potential Energy>
111.17748

> <RMS Gradient>
0.0471

> <Bond Energy>
6.7891

> <Angle Energy>
23.78273

> <STRBend>
0.30388

> <Dihedral Energy>
8.43344

> <OOPLane>
0.06165

> <Van der Waals Energy>
65.67729

> <Electrostatic Energy>
6.12939

> <Hydrogen Bond Energy>
0

> <Solvation Free Energy>
0

> <HasGasteigerCharges>
true

> <REMARK99>
REMARK  99  MacroMolecule created from Mol2 file
REMARK  99  CHEMBL5075710
REMARK  99  PROTEIN
REMARK  99  GASTEIGER
REMARK  99
REMARK  99

$$$$
CHEMBL4288463
  SciTegic05292516403D

 67 72  0  0  0  0            999 V2000
    2.7438   -1.0827    0.5416 C   0  0
    3.5542   -1.3890   -0.5393 N   0  0
    2.9051    0.1757    0.9138 N   0  0
    3.7726    0.7299    0.0064 C   0  0
    4.1753   -0.2215   -0.9236 C   0  0
    4.9760   -0.0265   -1.9905 N   0  0
    5.4257    1.2489   -2.0991 C   0  0
    5.1006    2.2855   -1.2163 C   0  0
    4.2531    2.0444   -0.1215 C   0  0
    1.7904   -2.0366    1.1882 C   0  0
    0.3772   -1.8465    0.6598 C   0  0
    3.8917    3.1569    0.8140 C   0  0
    6.3401    1.5341   -3.2559 C   0  0
    3.5734   -2.6371   -1.2966 C   0  0
    4.4701   -3.7480   -0.7760 C   0  0
    4.8054   -4.7906   -1.6609 C   0  0
    5.6249   -5.8609   -1.2707 C   0  0
    4.9418   -3.8419    0.5391 C   0  0
    6.1166   -5.9434    0.0352 C   0  0
    5.7503   -4.9233    0.9504 C   0  0
    6.2878   -4.9705    2.3633 C   0  0
    7.2157   -6.9420    0.4545 C   0  0  2  0  0  0
    7.7943   -4.6892    2.4935 C   0  0
    8.7694   -5.1176    1.4061 C   0  0
    8.5188   -6.1101    0.4261 C   0  0
    9.4221   -6.2192   -0.6508 C   0  0
   10.6020   -5.4751   -0.6952 C   0  0
   10.8998   -4.5852    0.3252 C   0  0
    9.9863   -4.4021    1.3595 C   0  0
    7.2760   -8.3568   -0.2442 C   0  0  2  0  0  0
    6.0399   -9.1964   -0.0110 C   0  0
    8.5029   -9.1761    0.2312 C   0  0
    6.0325  -10.3522    0.7472 N   0  0
    4.8208  -10.8805    0.6304 N   0  0
    4.1575  -10.0143   -0.1528 N   0  0
    4.8726   -8.9867   -0.6369 N   0  0
    5.4967    3.2855   -1.3813 H   0  0
    2.0995   -3.0755    1.0415 H   0  0
    1.7965   -1.8602    2.2703 H   0  0
   -0.3068   -2.5502    1.1448 H   0  0
    0.3302   -2.0155   -0.4213 H   0  0
    0.0148   -0.8314    0.8563 H   0  0
    3.2397    2.8048    1.6195 H   0  0
    3.3655    3.9496    0.2727 H   0  0
    4.7951    3.5754    1.2690 H   0  0
    5.9070    2.3077   -3.8975 H   0  0
    6.4964    0.6361   -3.8623 H   0  0
    7.3148    1.8728   -2.8911 H   0  0
    2.5412   -3.0032   -1.3433 H   0  0
    3.8684   -2.3824   -2.3219 H   0  0
    4.4508   -4.7647   -2.6905 H   0  0
    5.8950   -6.6036   -2.0169 H   0  0
    4.7138   -3.0615    1.2619 H   0  0
    5.7447   -4.2547    2.9951 H   0  0
    6.0431   -5.9450    2.8043 H   0  0
    7.0465   -7.2106    1.5051 H   0  0
    7.8843   -3.5966    2.5839 H   0  0
    8.1440   -5.1026    3.4482 H   0  0
    9.2213   -6.8872   -1.4848 H   0  0
   11.2845   -5.5905   -1.5322 H   0  0
   11.8224   -4.0100    0.2994 H   0  0
   10.2086   -3.6572    2.1219 H   0  0
    7.3777   -8.2281   -1.3292 H   0  0
    8.4942  -10.1811   -0.2080 H   0  0
    8.5038   -9.2898    1.3215 H   0  0
    9.4561   -8.7287   -0.0557 H   0  0
    3.1729  -10.1328   -0.3746 H   0  0
  1  2  1  0
  1 10  1  0
  2  5  1  0
  2 14  1  0
  3  1  2  0
  4  3  1  0
  4  5  2  0
  5  6  1  0
  6  7  2  0
  7  8  1  0
  7 13  1  0
  8  9  2  0
  8 37  1  0
  9  4  1  0
  9 12  1  0
 10 11  1  0
 10 38  1  0
 10 39  1  0
 11 40  1  0
 11 41  1  0
 11 42  1  0
 12 43  1  0
 12 44  1  0
 12 45  1  0
 13 46  1  0
 13 47  1  0
 13 48  1  0
 14 15  1  0
 14 49  1  0
 14 50  1  0
 15 16  2  0
 16 17  1  0
 16 51  1  0
 17 19  2  0
 17 52  1  0
 18 15  1  0
 18 53  1  0
 19 20  1  0
 19 22  1  0
 20 18  2  0
 20 21  1  0
 21 23  1  0
 21 54  1  0
 21 55  1  0
 22 25  1  0
 22 30  1  0
 22 56  1  0
 23 24  1  0
 23 57  1  0
 23 58  1  0
 24 25  2  0
 25 26  1  0
 26 27  2  0
 26 59  1  0
 27 28  1  0
 27 60  1  0
 28 29  2  0
 28 61  1  0
 29 24  1  0
 29 62  1  0
 30 31  1  0
 30 32  1  0
 30 63  1  0
 31 33  1  0
 32 64  1  0
 32 65  1  0
 32 66  1  0
 33 34  2  0
 34 35  1  0
 35 36  1  0
 35 67  1  0
 36 31  2  0
M  END
> <Name>
CHEMBL4288463

> <Clean Energy>
93.5429

> <chembl_id>
CHEMBL4288463

> <chembl_pref_name>
None

> <efficacy>
0.227920228

> <Forcefield>
MMFF

> <ForcefieldBase>
MMFF

> <ForcefieldFFML>
<?xml version="1.0" encoding="UTF-8"?>
<!DOCTYPE ffml SYSTEM "Ffml.dtd">
<ffml version="1.0">
<forcefield name="MMFF" derivedFrom="MMFF" base="MMFF">
<atomTypes>
<atomType
name="C100"
element="C"
mass="12.011"
annotation=""/>
<atomType
name="N101"
element="N"
mass="14.007"
annotation=""/>
<atomType
name="H102"
element="H"
mass="1.008"
annotation=""/>
</atomTypes>
<parameters>
</parameters>
</forcefield>
</ffml>

> <Initial Potential Energy>
270.25227

> <Initial RMS Gradient>
37.85406

> <Minimization Criteria>
STEEPD> Minimization exiting with gradient tolerance ( 3.0000000) satisfied.

> <CHARMm Energy>
124.42525

> <Potential Energy>
124.42525

> <RMS Gradient>
0.07825

> <Bond Energy>
12.88838

> <Angle Energy>
17.67756

> <STRBend>
0.76398

> <Dihedral Energy>
-2.00412

> <OOPLane>
0.56594

> <Van der Waals Energy>
70.32598

> <Electrostatic Energy>
24.20752

> <Hydrogen Bond Energy>
0

> <Solvation Free Energy>
0

> <HasGasteigerCharges>
true

> <REMARK99>
REMARK  99  MacroMolecule created from Mol2 file
REMARK  99  CHEMBL4288463
REMARK  99  PROTEIN
REMARK  99  GASTEIGER
REMARK  99
REMARK  99

$$$$
CHEMBL1236924
  SciTegic05292516403D

 43 46  0  0  0  0            999 V2000
    9.6114    2.2596   -1.6277 Cl  0  0
    9.5725   -2.8742    0.2254 Cl  0  0
    1.6438    2.2087   -1.4773 Cl  0  0
   -1.2155   -1.5470    1.0266 Cl  0  0
    4.3844    0.9495   -0.3330 S   0  0
   10.7529   -0.5045   -1.1756 O   0  0
    4.6845    0.5751   -1.6963 O   0  0
    4.3798    2.3206    0.1302 O   0  0
    5.4972    0.1676    0.7104 N   0  0
   13.0866    0.8560    1.3777 N   0  0
    6.8371    0.0335    0.1881 C   0  0
    2.8148    0.2367    0.0626 C   0  0
    9.5071   -0.2842   -0.6353 C   0  0
    7.5283    1.1039   -0.3873 C   0  0
    7.4981   -1.1739    0.4095 C   0  0
   14.3075   -0.2054   -0.4114 C   0  0
    8.8451    0.9337   -0.8300 C   0  0
    8.8217   -1.3379   -0.0171 C   0  0
    1.6517    0.8228   -0.4464 C   0  0
    2.7277   -0.9128    0.8623 C   0  0
   11.8764   -0.1536   -0.4651 C   0  0
   14.2534    0.4955    0.8104 C   0  0
   13.0921   -0.5218   -1.0409 C   0  0
    0.4053    0.2658   -0.1414 C   0  0
    1.4771   -1.4626    1.1613 C   0  0
   15.5526   -0.5651   -0.9645 C   0  0
   11.9326    0.5289    0.7380 C   0  0
    0.3215   -0.8695    0.6599 C   0  0
   15.4543    0.8156    1.4352 C   0  0
   16.7429   -0.2321   -0.3154 C   0  0
   16.6944    0.4613    0.8881 C   0  0
    5.5396    0.7496    1.5545 H   0  0
    7.0408    2.0668   -0.5318 H   0  0
    6.9716   -1.9977    0.8872 H   0  0
    3.6152   -1.4035    1.2514 H   0  0
   13.0883   -1.0585   -1.9866 H   0  0
   -0.5015    0.7151   -0.5378 H   0  0
    1.4066   -2.3556    1.7795 H   0  0
   15.6017   -1.1074   -1.9068 H   0  0
   11.0423    0.8618    1.2594 H   0  0
   15.4232    1.3600    2.3765 H   0  0
   17.7021   -0.5121   -0.7465 H   0  0
   17.6150    0.7276    1.4033 H   0  0
  1 17  1  0
  2 18  1  0
  3 19  1  0
  4 28  1  0
  5  7  2  0
  5  8  2  0
  5  9  1  0
  5 12  1  0
  6 13  1  0
  6 21  1  0
  9 11  1  0
  9 32  1  0
 10 22  1  0
 10 27  2  0
 11 14  2  0
 11 15  1  0
 12 19  2  0
 12 20  1  0
 13 17  2  0
 13 18  1  0
 14 17  1  0
 14 33  1  0
 15 18  2  0
 15 34  1  0
 16 22  1  0
 16 23  1  0
 16 26  2  0
 19 24  1  0
 20 25  2  0
 20 35  1  0
 21 23  2  0
 21 27  1  0
 22 29  2  0
 23 36  1  0
 24 28  2  0
 24 37  1  0
 25 28  1  0
 25 38  1  0
 26 30  1  0
 26 39  1  0
 27 40  1  0
 29 31  1  0
 29 41  1  0
 30 31  2  0
 30 42  1  0
 31 43  1  0
M  END
> <Name>
CHEMBL1236924

> <Clean Energy>
38.459702

> <chembl_id>
CHEMBL1236924

> <chembl_pref_name>
INT131

> <efficacy>
0.239411206

> <Forcefield>
MMFF

> <ForcefieldBase>
MMFF

> <ForcefieldFFML>
<?xml version="1.0" encoding="UTF-8"?>
<!DOCTYPE ffml SYSTEM "Ffml.dtd">
<ffml version="1.0">
<forcefield name="MMFF" derivedFrom="MMFF" base="MMFF">
<atomTypes>
<atomType
name="Cl100"
element="Cl"
mass="35.453"
annotation=""/>
<atomType
name="S101"
element="S"
mass="32.066"
annotation=""/>
<atomType
name="O102"
element="O"
mass="16"
annotation=""/>
<atomType
name="N103"
element="N"
mass="14.007"
annotation=""/>
<atomType
name="C104"
element="C"
mass="12.011"
annotation=""/>
<atomType
name="H105"
element="H"
mass="1.008"
annotation=""/>
</atomTypes>
<parameters>
</parameters>
</forcefield>
</ffml>

> <Initial Potential Energy>
150.36683

> <Initial RMS Gradient>
42.02927

> <Minimization Criteria>
STEEPD> Minimization exiting with gradient tolerance ( 3.0000000) satisfied.

> <CHARMm Energy>
29.00153

> <Potential Energy>
29.00153

> <RMS Gradient>
0.07032

> <Bond Energy>
5.40863

> <Angle Energy>
16.11888

> <STRBend>
0.94187

> <Dihedral Energy>
12.72178

> <OOPLane>
0.23609

> <Van der Waals Energy>
63.28733

> <Electrostatic Energy>
-69.71305

> <Hydrogen Bond Energy>
0

> <Solvation Free Energy>
0

> <HasGasteigerCharges>
true

> <REMARK99>
REMARK  99  MacroMolecule created from Mol2 file
REMARK  99  CHEMBL1236924
REMARK  99  PROTEIN
REMARK  99  GASTEIGER
REMARK  99
REMARK  99

$$$$
CHEMBL4847196
  SciTegic05292516403D

 48 51  0  0  0  0            999 V2000
   36.0708   -2.8913    1.3611 C   0  0
   36.1657   -3.8139    0.3194 C   0  0
   37.3348   -3.9284   -0.4445 C   0  0
   37.1502   -2.0514    1.6627 C   0  0
   38.3300   -2.1380    0.9000 C   0  0
   38.4028   -3.0731   -0.1318 C   0  0
   39.6712   -2.9097   -0.6516 N   0  0
   40.2778   -1.8602    0.0135 C   0  0
   39.5036   -1.4257    0.9855 N   0  0
   41.6429   -1.3327   -0.3075 C   0  0
   41.8150    0.1271    0.1167 C   0  0
   43.1928    0.6529   -0.2534 C   0  0
   40.2678   -3.7177   -1.7104 C   0  0
   41.5168   -4.4341   -1.2505 C   0  0
   41.5381   -5.1487   -0.0449 C   0  0
   42.7173   -5.7420    0.4075 C   0  0
   43.8984   -5.6670   -0.3453 C   0  0
   43.8610   -4.9936   -1.5750 C   0  0
   42.6837   -4.3881   -2.0259 C   0  0
   45.1496   -6.2547    0.1610 C   0  0
   45.3101   -7.6398    0.3731 C   0  0
   46.5073   -8.1363    0.9098 C   0  0
   47.5534   -7.2709    1.2268 C   0  0
   47.4189   -5.9057    1.0028 C   0  0
   46.2278   -5.4028    0.4766 C   0  0
   36.9974   -0.8083    3.0800 Br  0  0
   44.2730   -8.5793    0.0456 C   0  0
   43.4430   -9.3526   -0.2049 N   0  0
   35.1505   -2.8291    1.9377 H   0  0
   35.3180   -4.4601    0.0988 H   0  0
   37.3918   -4.6539   -1.2493 H   0  0
   42.3904   -1.9496    0.2046 H   0  0
   41.8297   -1.4075   -1.3844 H   0  0
   41.0509    0.7529   -0.3608 H   0  0
   41.6771    0.2246    1.2004 H   0  0
   43.2948    1.6966    0.0596 H   0  0
   43.3547    0.6043   -1.3349 H   0  0
   43.9789    0.0716    0.2389 H   0  0
   39.5389   -4.4552   -2.0582 H   0  0
   40.4741   -3.0329   -2.5411 H   0  0
   40.6460   -5.2234    0.5757 H   0  0
   42.7067   -6.2526    1.3692 H   0  0
   44.7572   -4.9299   -2.1905 H   0  0
   42.6960   -3.8628   -2.9790 H   0  0
   46.6259   -9.2034    1.0856 H   0  0
   48.4738   -7.6613    1.6506 H   0  0
   48.2358   -5.2304    1.2484 H   0  0
   46.1364   -4.3270    0.3297 H   0  0
  1  2  2  0
  1 29  1  0
  2  3  1  0
  2 30  1  0
  3  6  2  0
  3 31  1  0
  4  1  1  0
  4 26  1  0
  5  4  2  0
  5  6  1  0
  6  7  1  0
  7  8  1  0
  7 13  1  0
  8  9  2  0
  8 10  1  0
  9  5  1  0
 10 11  1  0
 10 32  1  0
 10 33  1  0
 11 12  1  0
 11 34  1  0
 11 35  1  0
 12 36  1  0
 12 37  1  0
 12 38  1  0
 13 14  1  0
 13 39  1  0
 13 40  1  0
 14 15  2  0
 15 16  1  0
 15 41  1  0
 16 17  2  0
 16 42  1  0
 17 18  1  0
 17 20  1  0
 18 19  2  0
 18 43  1  0
 19 14  1  0
 19 44  1  0
 20 21  2  0
 21 22  1  0
 21 27  1  0
 22 23  2  0
 22 45  1  0
 23 24  1  0
 23 46  1  0
 24 25  2  0
 24 47  1  0
 25 20  1  0
 25 48  1  0
 27 28  3  0
M  END
> <Name>
CHEMBL4847196

> <Clean Energy>
66.559799

> <chembl_id>
CHEMBL4847196

> <chembl_pref_name>
None

> <efficacy>
0.39031339

> <Forcefield>
MMFF

> <ForcefieldBase>
MMFF

> <ForcefieldFFML>
<?xml version="1.0" encoding="UTF-8"?>
<!DOCTYPE ffml SYSTEM "Ffml.dtd">
<ffml version="1.0">
<forcefield name="MMFF" derivedFrom="MMFF" base="MMFF">
<atomTypes>
<atomType
name="C100"
element="C"
mass="12.011"
annotation=""/>
<atomType
name="N101"
element="N"
mass="14.007"
annotation=""/>
<atomType
name="Br102"
element="Br"
mass="79.904"
annotation=""/>
<atomType
name="H103"
element="H"
mass="1.008"
annotation=""/>
</atomTypes>
<parameters>
</parameters>
</forcefield>
</ffml>

> <Initial Potential Energy>
258.23798

> <Initial RMS Gradient>
34.77191

> <Minimization Criteria>
STEEPD> Minimization exiting with gradient tolerance ( 3.0000000) satisfied.

> <CHARMm Energy>
97.14166

> <Potential Energy>
97.14166

> <RMS Gradient>
0.14709

> <Bond Energy>
6.59034

> <Angle Energy>
4.04555

> <STRBend>
-0.57423

> <Dihedral Energy>
1.94388

> <OOPLane>
0.02462

> <Van der Waals Energy>
51.6623

> <Electrostatic Energy>
33.44919

> <Hydrogen Bond Energy>
0

> <Solvation Free Energy>
0

> <HasGasteigerCharges>
true

> <REMARK99>
REMARK  99  MacroMolecule created from Mol2 file
REMARK  99  CHEMBL4847196
REMARK  99  PROTEIN
REMARK  99  GASTEIGER
REMARK  99
REMARK  99

$$$$
CHEMBL4863289
  SciTegic05292516403D

 55 58  0  0  0  0            999 V2000
   37.2483   -4.9290    0.9708 C   0  0
   38.1452   -5.7369    0.2673 C   0  0
   39.2373   -5.1873   -0.4057 C   0  0
   37.3867   -3.5325    1.0112 C   0  0
   38.5047   -2.9713    0.3484 C   0  0
   39.3957   -3.7980   -0.3315 C   0  0
   40.3577   -2.9398   -0.8225 N   0  0
   40.0194   -1.6559   -0.4330 C   0  0
   38.8886   -1.6477    0.2517 N   0  0
   40.8229   -0.4339   -0.7423 C   0  0
   42.0232   -0.2936    0.1932 C   0  0
   42.8064    0.9774   -0.0943 C   0  0
   41.4644   -3.3366   -1.6915 C   0  0
   42.5394   -4.2010   -1.0598 C   0  0
   42.7151   -4.3440    0.3208 C   0  0
   43.7491   -5.1408    0.8321 C   0  0
   44.6574   -5.8022   -0.0125 C   0  0
   44.4924   -5.6443   -1.3946 C   0  0
   43.4485   -4.8602   -1.9082 C   0  0
   45.7829   -6.5762    0.5501 C   0  0
   46.0256   -7.9454    0.3057 C   0  0
   47.1651   -8.5769    0.8479 C   0  0
   48.0602   -7.8736    1.6507 C   0  0
   47.8313   -6.5296    1.9112 C   0  0
   46.7137   -5.8920    1.3644 C   0  0
   36.4914   -2.7584    1.7447 N   0  0
   45.1655   -8.8227   -0.5265 C   0  0
   45.6288   -9.6794   -1.2691 O   0  0
   43.8528   -8.6121   -0.2663 O   0  0
   42.9896   -9.4991   -0.9775 C   0  0
   36.4326   -5.4054    1.5056 H   0  0
   37.9910   -6.8138    0.2537 H   0  0
   39.9407   -5.8213   -0.9352 H   0  0
   41.1424   -0.4350   -1.7900 H   0  0
   40.1731    0.4433   -0.6270 H   0  0
   41.6863   -0.2809    1.2371 H   0  0
   42.6927   -1.1547    0.0883 H   0  0
   43.6585    1.0598    0.5877 H   0  0
   42.1784    1.8641    0.0383 H   0  0
   43.1905    0.9774   -1.1194 H   0  0
   41.0039   -3.8735   -2.5306 H   0  0
   41.9343   -2.4358   -2.0949 H   0  0
   42.0536   -3.8469    1.0285 H   0  0
   43.8435   -5.2371    1.9130 H   0  0
   45.1888   -6.1183   -2.0869 H   0  0
   43.3595   -4.7609   -2.9891 H   0  0
   47.3531   -9.6305    0.6436 H   0  0
   48.9305   -8.3742    2.0667 H   0  0
   48.5201   -5.9638    2.5330 H   0  0
   46.5803   -4.8297    1.5674 H   0  0
   35.5146   -3.0258    1.7923 H   0  0
   36.6611   -1.7525    1.7405 H   0  0
   43.1080   -9.3674   -2.0577 H   0  0
   41.9581   -9.2513   -0.7116 H   0  0
   43.1809  -10.5372   -0.6880 H   0  0
  1  2  2  0
  1 31  1  0
  2  3  1  0
  2 32  1  0
  3  6  2  0
  3 33  1  0
  4  1  1  0
  4 26  1  0
  5  4  2  0
  5  6  1  0
  6  7  1  0
  7  8  1  0
  7 13  1  0
  8  9  2  0
  8 10  1  0
  9  5  1  0
 10 11  1  0
 10 34  1  0
 10 35  1  0
 11 12  1  0
 11 36  1  0
 11 37  1  0
 12 38  1  0
 12 39  1  0
 12 40  1  0
 13 14  1  0
 13 41  1  0
 13 42  1  0
 14 15  2  0
 15 16  1  0
 15 43  1  0
 16 17  2  0
 16 44  1  0
 17 18  1  0
 17 20  1  0
 18 19  2  0
 18 45  1  0
 19 14  1  0
 19 46  1  0
 20 21  2  0
 21 22  1  0
 21 27  1  0
 22 23  2  0
 22 47  1  0
 23 24  1  0
 23 48  1  0
 24 25  2  0
 24 49  1  0
 25 20  1  0
 25 50  1  0
 26 51  1  0
 26 52  1  0
 27 28  2  0
 27 29  1  0
 29 30  1  0
 30 53  1  0
 30 54  1  0
 30 55  1  0
M  END
> <Name>
CHEMBL4863289

> <Clean Energy>
62.8423

> <chembl_id>
CHEMBL4863289

> <chembl_pref_name>
None

> <efficacy>
0.001044634

> <Forcefield>
MMFF

> <ForcefieldBase>
MMFF

> <ForcefieldFFML>
<?xml version="1.0" encoding="UTF-8"?>
<!DOCTYPE ffml SYSTEM "Ffml.dtd">
<ffml version="1.0">
<forcefield name="MMFF" derivedFrom="MMFF" base="MMFF">
<atomTypes>
<atomType
name="C100"
element="C"
mass="12.011"
annotation=""/>
<atomType
name="N101"
element="N"
mass="14.007"
annotation=""/>
<atomType
name="O102"
element="O"
mass="16"
annotation=""/>
<atomType
name="H103"
element="H"
mass="1.008"
annotation=""/>
</atomTypes>
<parameters>
</parameters>
</forcefield>
</ffml>

> <Initial Potential Energy>
300.54168

> <Initial RMS Gradient>
37.61367

> <Minimization Criteria>
CONJUG> Minimization exiting with gradient tolerance ( 0.0100000) satisfied.

> <CHARMm Energy>
92.77293

> <Potential Energy>
92.77293

> <RMS Gradient>
0.00929

> <Bond Energy>
7.85787

> <Angle Energy>
11.71014

> <STRBend>
-0.31407

> <Dihedral Energy>
8.63523

> <OOPLane>
2.02414

> <Van der Waals Energy>
56.19859

> <Electrostatic Energy>
6.66104

> <Hydrogen Bond Energy>
0

> <Solvation Free Energy>
0

> <HasGasteigerCharges>
true

> <REMARK99>
REMARK  99  MacroMolecule created from Mol2 file
REMARK  99  CHEMBL4863289
REMARK  99  PROTEIN
REMARK  99  GASTEIGER
REMARK  99
REMARK  99

$$$$
CHEMBL5090820
  SciTegic05292516403D

 52 55  0  0  0  0            999 V2000
   16.7152  -14.8675    2.8707 F   0  0
   17.6556  -15.0588    1.9034 C   0  0
   17.5951  -13.9582    1.1049 F   0  0
   13.1391  -17.3341    1.3317 O   0  0
   13.3891  -18.5441    0.5701 S   0  0
   12.4022  -19.6114    0.5503 O   0  0
   16.3735  -17.1785    1.4249 C   0  0
   16.1212  -18.3646    0.7201 C   0  0
   16.9998  -18.7228   -0.3077 C   0  0
   18.0991  -17.9172   -0.6209 C   0  0
   18.3688  -16.7332    0.0913 C   0  0
   17.4770  -16.3480    1.1205 C   0  0
   19.5857  -15.9125   -0.2992 C   0  0
   20.8066  -16.6912   -0.2398 N   0  0
   22.0291  -16.1260   -0.5340 C   0  0
   23.2002  -17.0355   -0.4478 C   0  0
   22.2026  -14.9481   -0.8283 O   0  0
   23.1788  -18.3115   -1.0209 C   0  0
   24.3075  -19.1399   -0.9810 C   0  0
   24.3622  -16.5532    0.1697 C   0  0
   25.5038  -17.3768    0.2319 C   0  0
   25.4595  -18.6487   -0.3453 C   0  0
   26.7096  -19.2109   -0.1664 N   0  0
   27.5257  -18.3476    0.5177 C   0  0
   26.8052  -17.2048    0.7777 C   0  0
   27.1151  -20.5170   -0.6426 C   0  0
   14.9521  -19.2523    1.0765 C   0  0
   13.6286  -18.0859   -1.1776 C   0  0
   18.8589  -15.0080    2.5400 F   0  0
   13.9898  -16.6468   -1.4300 C   0  0
   12.5890  -17.1268   -1.6957 C   0  0
   15.6945  -16.8824    2.2283 H   0  0
   16.8459  -19.6376   -0.8777 H   0  0
   18.7557  -18.2214   -1.4359 H   0  0
   19.4611  -15.5449   -1.3248 H   0  0
   19.7252  -15.0354    0.3377 H   0  0
   20.7726  -17.6361    0.1189 H   0  0
   22.2888  -18.6628   -1.5375 H   0  0
   24.3095  -20.1181   -1.4517 H   0  0
   24.3966  -15.5486    0.5858 H   0  0
   28.5488  -18.6090    0.7577 H   0  0
   27.1651  -16.3292    1.3012 H   0  0
   28.1545  -20.7034   -0.3612 H   0  0
   27.0167  -20.5321   -1.7310 H   0  0
   26.4663  -21.2670   -0.1832 H   0  0
   15.0365  -20.2288    0.5881 H   0  0
   14.9084  -19.4187    2.1577 H   0  0
   13.9953  -18.8540   -1.8419 H   0  0
   14.1385  -15.9700   -0.5957 H   0  0
   14.6227  -16.4266   -2.2823 H   0  0
   12.2771  -17.2275   -2.7284 H   0  0
   11.8034  -16.7856   -1.0296 H   0  0
  2  1  1  0
  2 29  1  0
  3  2  1  0
  5  4  2  0
  5 28  1  0
  6  5  2  0
  7  8  2  0
  7 32  1  0
  8  9  1  0
  8 27  1  0
  9 10  2  0
  9 33  1  0
 10 11  1  0
 10 34  1  0
 11 12  2  0
 11 13  1  0
 12  2  1  0
 12  7  1  0
 13 14  1  0
 13 35  1  0
 13 36  1  0
 14 15  1  0
 14 37  1  0
 15 16  1  0
 15 17  2  0
 16 18  2  0
 18 19  1  0
 18 38  1  0
 19 22  2  0
 19 39  1  0
 20 16  1  0
 20 40  1  0
 21 20  2  0
 21 22  1  0
 22 23  1  0
 23 24  1  0
 23 26  1  0
 24 25  2  0
 24 41  1  0
 25 21  1  0
 25 42  1  0
 26 43  1  0
 26 44  1  0
 26 45  1  0
 27  5  1  0
 27 46  1  0
 27 47  1  0
 28 31  1  0
 28 48  1  0
 30 28  1  0
 30 49  1  0
 30 50  1  0
 31 30  1  0
 31 51  1  0
 31 52  1  0
M  END
> <Name>
CHEMBL5090820

> <Clean Energy>
74.456802

> <chembl_id>
CHEMBL5090820

> <chembl_pref_name>
None

> <efficacy>
0.417853751

> <Forcefield>
MMFF

> <ForcefieldBase>
MMFF

> <ForcefieldFFML>
<?xml version="1.0" encoding="UTF-8"?>
<!DOCTYPE ffml SYSTEM "Ffml.dtd">
<ffml version="1.0">
<forcefield name="MMFF" derivedFrom="MMFF" base="MMFF">
<atomTypes>
<atomType
name="F100"
element="F"
mass="18.998"
annotation=""/>
<atomType
name="C101"
element="C"
mass="12.011"
annotation=""/>
<atomType
name="O102"
element="O"
mass="16"
annotation=""/>
<atomType
name="S103"
element="S"
mass="32.066"
annotation=""/>
<atomType
name="N104"
element="N"
mass="14.007"
annotation=""/>
<atomType
name="H105"
element="H"
mass="1.008"
annotation=""/>
</atomTypes>
<parameters>
</parameters>
</forcefield>
</ffml>

> <Initial Potential Energy>
175.2476

> <Initial RMS Gradient>
29.09557

> <Minimization Criteria>
CONJUG> Minimization exiting with gradient tolerance ( 0.0100000) satisfied.

> <CHARMm Energy>
100.05957

> <Potential Energy>
100.05957

> <RMS Gradient>
0.00993

> <Bond Energy>
5.91102

> <Angle Energy>
8.13505

> <STRBend>
0.32924

> <Dihedral Energy>
10.64569

> <OOPLane>
0.07175

> <Van der Waals Energy>
41.6037

> <Electrostatic Energy>
33.36311

> <Hydrogen Bond Energy>
0

> <Solvation Free Energy>
0

> <HasGasteigerCharges>
true

> <REMARK99>
REMARK  99  MacroMolecule created from Mol2 file
REMARK  99  CHEMBL5090820
REMARK  99  PROTEIN
REMARK  99  GASTEIGER
REMARK  99
REMARK  99

$$$$
CHEMBL2103824
  SciTegic05292516403D

 45 46  0  0  0  0            999 V2000
   -2.3656    0.0585    1.8929 C   0  0
   -3.5528   -0.5135    2.3373 C   0  0
   -4.2720   -1.3527    1.4900 C   0  0
   -3.8248   -1.6127    0.1873 C   0  0
   -2.6295   -1.0194   -0.2514 C   0  0
   -1.8876   -0.2115    0.6095 C   0  0
   -4.6297   -2.4933   -0.7358 C   0  0
   -0.6897    0.3719    0.3192 O   0  0
    0.1472   -0.2209   -0.6857 C   0  0  1  0  0  0
    1.3861    0.6808   -0.8196 C   0  0
    2.2920    0.1203   -1.6809 O   0  0
    1.5603    1.7412   -0.2329 O   0  0
    3.6326    0.6182   -1.5548 C   0  0
    4.3903   -0.2791   -0.5742 C   0  0
    5.7143    0.2166   -0.2653 N   0  0
    5.9394    1.0623    0.8002 C   0  0
    7.3741    1.4716    0.9772 C   0  0
    5.0416    1.4214    1.5561 O   0  0
    0.5680   -1.6441   -0.3185 C   0  0
    1.0662   -1.9373    0.9630 C   0  0
    0.4902   -2.6745   -1.2694 C   0  0
    0.8924   -3.9712   -0.9411 C   0  0
    1.3798   -4.2451    0.3353 C   0  0
    1.4691   -3.2337    1.2883 C   0  0
    1.8797   -5.8422    0.7336 Cl  0  0
   -5.2562   -3.5313   -0.1011 F   0  0
   -3.8728   -3.0609   -1.7192 F   0  0
   -5.6343   -1.8220   -1.3768 F   0  0
   -1.7959    0.7057    2.5564 H   0  0
   -3.9174   -0.3102    3.3417 H   0  0
   -5.1909   -1.8053    1.8518 H   0  0
   -2.2997   -1.2096   -1.2683 H   0  0
   -0.3663   -0.1784   -1.6543 H   0  0
    4.0984    0.5669   -2.5451 H   0  0
    3.6596    1.6710   -1.2511 H   0  0
    3.8207   -0.3970    0.3545 H   0  0
    4.5029   -1.2824   -1.0000 H   0  0
    6.5053   -0.0677   -0.8339 H   0  0
    7.8884    0.7248    1.5877 H   0  0
    7.4160    2.4432    1.4768 H   0  0
    7.8775    1.5569    0.0101 H   0  0
    1.1392   -1.1539    1.7174 H   0  0
    0.1177   -2.4773   -2.2727 H   0  0
    0.8240   -4.7620   -1.6838 H   0  0
    1.8489   -3.4452    2.2845 H   0  0
  1  2  2  0
  1 29  1  0
  2  3  1  0
  2 30  1  0
  3  4  2  0
  3 31  1  0
  4  5  1  0
  4  7  1  0
  5  6  2  0
  5 32  1  0
  6  1  1  0
  6  8  1  0
  7 26  1  0
  7 27  1  0
  7 28  1  0
  9  8  1  0
  9 10  1  0
  9 19  1  0
  9 33  1  0
 10 11  1  0
 10 12  2  0
 11 13  1  0
 13 14  1  0
 13 34  1  0
 13 35  1  0
 14 15  1  0
 14 36  1  0
 14 37  1  0
 15 16  1  0
 15 38  1  0
 16 17  1  0
 16 18  2  0
 17 39  1  0
 17 40  1  0
 17 41  1  0
 19 21  1  0
 20 19  2  0
 20 24  1  0
 20 42  1  0
 21 22  2  0
 21 43  1  0
 22 23  1  0
 22 44  1  0
 23 24  2  0
 23 25  1  0
 24 45  1  0
M  END
> <Name>
CHEMBL2103824

> <Clean Energy>
53.6362

> <chembl_id>
CHEMBL2103824

> <chembl_pref_name>
ARHALOFENATE

> <efficacy>
0.102231719

> <Forcefield>
MMFF

> <ForcefieldBase>
MMFF

> <ForcefieldFFML>
<?xml version="1.0" encoding="UTF-8"?>
<!DOCTYPE ffml SYSTEM "Ffml.dtd">
<ffml version="1.0">
<forcefield name="MMFF" derivedFrom="MMFF" base="MMFF">
<atomTypes>
<atomType
name="C100"
element="C"
mass="12.011"
annotation=""/>
<atomType
name="O101"
element="O"
mass="16"
annotation=""/>
<atomType
name="N102"
element="N"
mass="14.007"
annotation=""/>
<atomType
name="Cl103"
element="Cl"
mass="35.453"
annotation=""/>
<atomType
name="F104"
element="F"
mass="18.998"
annotation=""/>
<atomType
name="H105"
element="H"
mass="1.008"
annotation=""/>
</atomTypes>
<parameters>
</parameters>
</forcefield>
</ffml>

> <Initial Potential Energy>
248.59343

> <Initial RMS Gradient>
53.3765

> <Minimization Criteria>
CONJUG> Minimization exiting with gradient tolerance ( 0.0100000) satisfied.

> <CHARMm Energy>
83.72993

> <Potential Energy>
83.72993

> <RMS Gradient>
0.00945

> <Bond Energy>
4.76724

> <Angle Energy>
10.66089

> <STRBend>
0.18654

> <Dihedral Energy>
1.84191

> <OOPLane>
0.03319

> <Van der Waals Energy>
43.55622

> <Electrostatic Energy>
22.68394

> <Hydrogen Bond Energy>
0

> <Solvation Free Energy>
0

> <HasGasteigerCharges>
true

> <REMARK99>
REMARK  99  MacroMolecule created from Mol2 file
REMARK  99  CHEMBL2103824
REMARK  99  PROTEIN
REMARK  99  GASTEIGER
REMARK  99
REMARK  99

$$$$
CHEMBL3545278
  SciTegic05292516403D

 53 55  0  0  0  0            999 V2000
   11.7210    1.5380    1.4521 Cl  0  0
   16.7228    3.3356    2.0292 Cl  0  0
    4.8758   -1.3568   -1.3288 S   0  0
    5.1695   -0.4531   -2.4167 O   0  0
    4.1904   -2.6105   -1.5681 O   0  0
    7.2175    0.2891   -0.2900 O   0  0
   12.3411   -1.2472   -0.3455 N   0  0
    6.3057   -1.8092   -0.6127 N   0  0
   12.3762   -3.2369    0.6472 N   0  0
    2.6157   -0.0910   -0.4385 C   0  0
    4.0247   -0.4882   -0.0106 C   0  0
   11.0226   -1.5666   -0.0872 C   0  0
    1.8717    0.6256    0.6889 C   0  0
   12.7966   -0.0580   -1.0586 C   0  0
   11.0859   -2.8019    0.5484 C   0  0
   13.1165   -2.3114    0.0725 C   0  0
    0.4546    1.0085    0.2619 C   0  0
    9.8058   -0.9192   -0.3425 C   0  0
    8.6292   -1.5746    0.0584 C   0  0
    9.9060   -3.4309    0.9720 C   0  0
   13.7428    0.8098   -0.2600 C   0  0
    7.3419   -0.9241   -0.2922 C   0  0
    8.6768   -2.8112    0.7160 C   0  0
   14.5847   -2.4119   -0.1087 C   0  0
   -0.2969    1.7097    1.3822 C   0  0
   13.3481    1.5350    0.8799 C   0  0
   15.0793    0.9206   -0.6897 C   0  0
   14.2708    2.3140    1.5857 C   0  0
   15.9970    1.6982    0.0169 C   0  0
   15.5907    2.3866    1.1536 C   0  0
    6.4546   -2.8113   -0.6902 H   0  0
    2.6670    0.5595   -1.3203 H   0  0
    2.0545   -0.9839   -0.7392 H   0  0
    3.9913   -1.1631    0.8505 H   0  0
    4.6131    0.3983    0.2411 H   0  0
    1.8263   -0.0246    1.5711 H   0  0
    2.4240    1.5272    0.9798 H   0  0
   13.2700   -0.4201   -1.9798 H   0  0
   11.9317    0.5342   -1.3733 H   0  0
    0.4953    1.6683   -0.6125 H   0  0
   -0.1005    0.1110   -0.0346 H   0  0
    9.7604    0.0431   -0.8443 H   0  0
    9.9618   -4.3876    1.4806 H   0  0
    7.7712   -3.3025    1.0612 H   0  0
   14.9170   -3.4417    0.0593 H   0  0
   15.1065   -1.7746    0.6105 H   0  0
   14.8824   -2.1342   -1.1235 H   0  0
   -1.3096    1.9671    1.0558 H   0  0
    0.2103    2.6337    1.6770 H   0  0
   -0.3781    1.0655    2.2634 H   0  0
   15.4329    0.3963   -1.5777 H   0  0
   13.9716    2.8719    2.4706 H   0  0
   17.0260    1.7622   -0.3270 H   0  0
  1 26  1  0
  2 30  1  0
  3  4  2  0
  3  5  2  0
  3  8  1  0
  3 11  1  0
  6 22  2  0
  7 12  1  0
  7 14  1  0
  7 16  1  0
  8 22  1  0
  8 31  1  0
  9 15  1  0
  9 16  2  0
 10 11  1  0
 10 13  1  0
 10 32  1  0
 10 33  1  0
 11 34  1  0
 11 35  1  0
 12 15  2  0
 12 18  1  0
 13 17  1  0
 13 36  1  0
 13 37  1  0
 14 21  1  0
 14 38  1  0
 14 39  1  0
 15 20  1  0
 16 24  1  0
 17 25  1  0
 17 40  1  0
 17 41  1  0
 18 19  2  0
 18 42  1  0
 19 22  1  0
 19 23  1  0
 20 23  2  0
 20 43  1  0
 21 26  2  0
 21 27  1  0
 23 44  1  0
 24 45  1  0
 24 46  1  0
 24 47  1  0
 25 48  1  0
 25 49  1  0
 25 50  1  0
 26 28  1  0
 27 29  2  0
 27 51  1  0
 28 30  2  0
 28 52  1  0
 29 30  1  0
 29 53  1  0
M  END
> <Name>
CHEMBL3545278

> <Clean Energy>
45.324001

> <chembl_id>
CHEMBL3545278

> <chembl_pref_name>
ATX08-001

> <efficacy>
0.104463438

> <Forcefield>
MMFF

> <ForcefieldBase>
MMFF

> <ForcefieldFFML>
<?xml version="1.0" encoding="UTF-8"?>
<!DOCTYPE ffml SYSTEM "Ffml.dtd">
<ffml version="1.0">
<forcefield name="MMFF" derivedFrom="MMFF" base="MMFF">
<atomTypes>
<atomType
name="Cl100"
element="Cl"
mass="35.453"
annotation=""/>
<atomType
name="S101"
element="S"
mass="32.066"
annotation=""/>
<atomType
name="O102"
element="O"
mass="16"
annotation=""/>
<atomType
name="N103"
element="N"
mass="14.007"
annotation=""/>
<atomType
name="C104"
element="C"
mass="12.011"
annotation=""/>
<atomType
name="H105"
element="H"
mass="1.008"
annotation=""/>
</atomTypes>
<parameters>
</parameters>
</forcefield>
</ffml>

> <Initial Potential Energy>
53.9007

> <Initial RMS Gradient>
33.09763

> <Minimization Criteria>
STEEPD> Minimization exiting with gradient tolerance ( 3.0000000) satisfied.

> <CHARMm Energy>
-68.16116

> <Potential Energy>
-68.16116

> <RMS Gradient>
0.08075

> <Bond Energy>
5.35803

> <Angle Energy>
9.05616

> <STRBend>
0.06168

> <Dihedral Energy>
-7.26257

> <OOPLane>
0.04073

> <Van der Waals Energy>
41.96807

> <Electrostatic Energy>
-117.38326

> <Hydrogen Bond Energy>
0

> <Solvation Free Energy>
0

> <HasGasteigerCharges>
true

> <REMARK99>
REMARK  99  MacroMolecule created from Mol2 file
REMARK  99  CHEMBL3545278
REMARK  99  PROTEIN
REMARK  99  GASTEIGER
REMARK  99
REMARK  99

$$$$
CHEMBL3695816
  SciTegic05292516403D

 68 73  0  0  0  0            999 V2000
   -0.9282   -4.0863    1.0583 C   0  0
    0.1236   -3.0359    1.1505 C   0  0
    1.4038   -3.1928    1.6600 C   0  0
    2.0200   -4.4013    2.2861 C   0  0
    2.0744   -1.9938    1.4821 N   0  0
    3.4779   -1.7360    1.8215 C   0  0
    4.4688   -2.7142    1.2258 C   0  0
    5.5468   -3.1699    1.9993 C   0  0
    6.4824   -4.0726    1.4745 C   0  0
    6.3684   -4.5399    0.1560 C   0  0
    5.2953   -4.0657   -0.6181 C   0  0
    4.3722   -3.1515   -0.1001 C   0  0
    7.3490   -5.5003   -0.3882 C   0  0
    7.5397   -6.7367    0.2578 C   0  0
    8.4494   -7.6816   -0.2278 C   0  0
    9.1959   -7.4130   -1.3713 C   0  0
    9.0351   -6.1991   -2.0325 C   0  0
    8.1165   -5.2565   -1.5456 C   0  0
    7.9802   -3.9907   -2.2913 C   0  0
    8.2635   -2.8948   -1.8470 O   0  0
    7.3920   -4.1942   -3.4926 O   0  0
    1.1884   -1.0204    1.0388 C   0  0
    1.3428    0.3638    0.8268 C   0  0
    0.2324    1.1078    0.4001 C   0  0
   -0.9991    0.4960    0.1626 C   0  0
   -1.1240   -0.8935    0.3323 C   0  0
   -0.0307   -1.6577    0.8043 C   0  0
   -2.1523    1.3502   -0.2619 C   0  0
   -2.0000    2.4968   -0.6743 O   0  0
   -3.4106    0.8054   -0.1105 N   0  0
   -4.5880    1.5320   -0.5254 C   0  0
   -5.7919    0.6283   -0.6276 C   0  0
   -7.0145    0.9920   -0.0221 C   0  0
   -8.1462    0.1744   -0.1347 C   0  0
   -8.0340   -0.9914   -0.8589 C   0  0
   -9.0271   -1.8939   -1.0840 O   0  0
   -8.3186   -2.8760   -1.8723 C   0  0
   -6.9266   -2.5510   -2.0882 O   0  0
   -6.8471   -1.3565   -1.4461 C   0  0
   -5.7189   -0.5688   -1.3617 C   0  0
   -1.6309   -3.8721    0.2469 H   0  0
   -1.4899   -4.1420    1.9960 H   0  0
   -0.4888   -5.0688    0.8588 H   0  0
    2.6827   -4.1334    3.1142 H   0  0
    2.5817   -4.9786    1.5459 H   0  0
    1.2468   -5.0569    2.7007 H   0  0
    3.7486   -0.7318    1.4839 H   0  0
    3.5208   -1.7483    2.9173 H   0  0
    5.6718   -2.8235    3.0233 H   0  0
    7.3145   -4.3975    2.0998 H   0  0
    5.1692   -4.3991   -1.6459 H   0  0
    3.5618   -2.8022   -0.7396 H   0  0
    6.9676   -6.9806    1.1522 H   0  0
    8.5750   -8.6278    0.2939 H   0  0
    9.9062   -8.1476   -1.7395 H   0  0
    9.6340   -5.9791   -2.9132 H   0  0
    7.2721   -5.1374   -3.7208 H   0  0
    2.2888    0.8668    1.0051 H   0  0
    0.3323    2.1856    0.2659 H   0  0
   -2.0544   -1.4075    0.1231 H   0  0
   -3.5425   -0.0516    0.4052 H   0  0
   -4.7526    2.3232    0.2149 H   0  0
   -4.4056    2.0120   -1.4939 H   0  0
   -7.1044    1.9268    0.5308 H   0  0
   -9.0837    0.4520    0.3310 H   0  0
   -8.3756   -3.8429   -1.3593 H   0  0
   -8.8125   -2.9655   -2.8467 H   0  0
   -4.8008   -0.8736   -1.8548 H   0  0
  1  2  1  0
  1 41  1  0
  1 42  1  0
  1 43  1  0
  2  3  2  0
  3  4  1  0
  3  5  1  0
  4 44  1  0
  4 45  1  0
  4 46  1  0
  5  6  1  0
  5 22  1  0
  6  7  1  0
  6 47  1  0
  6 48  1  0
  7  8  2  0
  8  9  1  0
  8 49  1  0
  9 10  2  0
  9 50  1  0
 10 11  1  0
 10 13  1  0
 11 12  2  0
 11 51  1  0
 12  7  1  0
 12 52  1  0
 13 14  2  0
 14 15  1  0
 14 53  1  0
 15 16  2  0
 15 54  1  0
 16 17  1  0
 16 55  1  0
 17 18  2  0
 17 56  1  0
 18 13  1  0
 18 19  1  0
 19 20  2  0
 19 21  1  0
 21 57  1  0
 22 23  2  0
 23 24  1  0
 23 58  1  0
 24 25  2  0
 24 59  1  0
 25 26  1  0
 25 28  1  0
 26 27  2  0
 26 60  1  0
 27  2  1  0
 27 22  1  0
 28 29  2  0
 28 30  1  0
 30 31  1  0
 30 61  1  0
 31 32  1  0
 31 62  1  0
 31 63  1  0
 32 33  2  0
 33 34  1  0
 33 64  1  0
 34 35  2  0
 34 65  1  0
 35 36  1  0
 36 37  1  0
 37 38  1  0
 37 66  1  0
 37 67  1  0
 38 39  1  0
 39 35  1  0
 39 40  2  0
 40 32  1  0
 40 68  1  0
M  END
> <Name>
CHEMBL3695816

> <Clean Energy>
65.712402

> <chembl_id>
CHEMBL3695816

> <chembl_pref_name>
None

> <efficacy>
0.36

> <Forcefield>
MMFF

> <ForcefieldBase>
MMFF

> <ForcefieldFFML>
<?xml version="1.0" encoding="UTF-8"?>
<!DOCTYPE ffml SYSTEM "Ffml.dtd">
<ffml version="1.0">
<forcefield name="MMFF" derivedFrom="MMFF" base="MMFF">
<atomTypes>
<atomType
name="C100"
element="C"
mass="12.011"
annotation=""/>
<atomType
name="N101"
element="N"
mass="14.007"
annotation=""/>
<atomType
name="O102"
element="O"
mass="16"
annotation=""/>
<atomType
name="H103"
element="H"
mass="1.008"
annotation=""/>
</atomTypes>
<parameters>
</parameters>
</forcefield>
</ffml>

> <Initial Potential Energy>
546.2464

> <Initial RMS Gradient>
166.17101

> <Minimization Criteria>
STEEPD> Minimization exiting with gradient tolerance ( 3.0000000) satisfied.

> <CHARMm Energy>
83.53253

> <Potential Energy>
83.53253

> <RMS Gradient>
0.05268

> <Bond Energy>
10.4975

> <Angle Energy>
14.09277

> <STRBend>
-0.183

> <Dihedral Energy>
13.72122

> <OOPLane>
0.3491

> <Van der Waals Energy>
77.87751

> <Electrostatic Energy>
-32.82256

> <Hydrogen Bond Energy>
0

> <Solvation Free Energy>
0

> <HasGasteigerCharges>
true

> <REMARK99>
REMARK  99  MacroMolecule created from Mol2 file
REMARK  99  CHEMBL3695816
REMARK  99  PROTEIN
REMARK  99  GASTEIGER
REMARK  99
REMARK  99

$$$$
CHEMBL3397548
  SciTegic05292516403D

 36 37  0  0  0  0            999 V2000
    1.5953   -3.3794    1.6932 C   0  0
    2.1778   -3.2536    0.2752 C   0  0  1  0  0  0
    2.5456   -1.7807   -0.0003 C   0  0
    2.1835   -3.8621    2.6509 O   0  0
    0.3222   -2.9256    1.8162 O   0  0
    1.3673   -0.8784   -0.2728 C   0  0
    0.9231    0.0192    0.7085 C   0  0
   -0.1895    0.8257    0.4746 C   0  0
   -0.8634    0.7477   -0.7423 C   0  0
   -0.4237   -0.1318   -1.7291 C   0  0
    0.6888   -0.9410   -1.4973 C   0  0
    3.4060   -3.9707    0.1104 O   0  0
    3.4090   -5.3289   -0.0175 C   0  0
    4.6810   -5.8674   -0.2381 C   0  0
    4.8648   -7.2445   -0.3766 C   0  0
    3.7677   -8.1028   -0.2915 C   0  0
    2.4918   -7.5763   -0.0729 C   0  0
    2.3126   -6.1881    0.0631 C   0  0
    4.0092   -9.5531   -0.4296 C   0  0
    3.0731  -10.4495   -0.3680 N   0  0
    3.6589  -11.7159   -0.5368 O   0  0
    1.4441   -3.6137   -0.4560 H   0  0
    3.1360   -1.3832    0.8368 H   0  0
    3.2210   -1.7240   -0.8657 H   0  0
   -0.0537   -2.4827    1.0279 H   0  0
    1.4349    0.0839    1.6677 H   0  0
   -0.5301    1.5196    1.2402 H   0  0
   -1.7269    1.3833   -0.9254 H   0  0
   -0.9455   -0.1839   -2.6818 H   0  0
    1.0270   -1.6112   -2.2852 H   0  0
    5.5426   -5.2052   -0.2927 H   0  0
    5.8673   -7.6313   -0.5405 H   0  0
    1.6342   -8.2410    0.0048 H   0  0
    1.3086   -5.8238    0.2511 H   0  0
    5.0588   -9.8607   -0.5930 H   0  0
    2.9010  -12.3257   -0.4534 H   0  0
  1  2  1  0
  1  4  2  0
  1  5  1  0
  2  3  1  0
  2 12  1  0
  2 22  1  0
  3  6  1  0
  3 23  1  0
  3 24  1  0
  5 25  1  0
  6  7  1  0
  6 11  2  0
  7  8  2  0
  7 26  1  0
  8  9  1  0
  8 27  1  0
  9 10  2  0
  9 28  1  0
 10 11  1  0
 10 29  1  0
 11 30  1  0
 12 13  1  0
 13 14  1  0
 13 18  2  0
 14 15  2  0
 14 31  1  0
 15 16  1  0
 15 32  1  0
 16 17  2  0
 16 19  1  0
 17 18  1  0
 17 33  1  0
 18 34  1  0
 19 20  2  0
 19 35  1  0
 20 21  1  0
 21 36  1  0
M  END
> <Name>
CHEMBL3397548

> <Clean Energy>
12.7798

> <chembl_id>
CHEMBL3397548

> <chembl_pref_name>
None

> <efficacy>
0.38

> <Forcefield>
MMFF

> <ForcefieldBase>
MMFF

> <ForcefieldFFML>
<?xml version="1.0" encoding="UTF-8"?>
<!DOCTYPE ffml SYSTEM "Ffml.dtd">
<ffml version="1.0">
<forcefield name="MMFF" derivedFrom="MMFF" base="MMFF">
<atomTypes>
<atomType
name="C100"
element="C"
mass="12.011"
annotation=""/>
<atomType
name="O101"
element="O"
mass="16"
annotation=""/>
<atomType
name="N102"
element="N"
mass="14.007"
annotation=""/>
<atomType
name="H103"
element="H"
mass="1.008"
annotation=""/>
</atomTypes>
<parameters>
</parameters>
</forcefield>
</ffml>

> <Initial Potential Energy>
141.11753

> <Initial RMS Gradient>
32.06425

> <Minimization Criteria>
STEEPD> Minimization exiting with gradient tolerance ( 3.0000000) satisfied.

> <CHARMm Energy>
77.66427

> <Potential Energy>
77.66427

> <RMS Gradient>
0.04949

> <Bond Energy>
4.09967

> <Angle Energy>
14.23003

> <STRBend>
0.3673

> <Dihedral Energy>
-1.68108

> <OOPLane>
0.01894

> <Van der Waals Energy>
39.41273

> <Electrostatic Energy>
21.21668

> <Hydrogen Bond Energy>
0

> <Solvation Free Energy>
0

> <HasGasteigerCharges>
true

> <REMARK99>
REMARK  99  MacroMolecule created from Mol2 file
REMARK  99  CHEMBL3397548
REMARK  99  PROTEIN
REMARK  99  GASTEIGER
REMARK  99
REMARK  99

$$$$
CHEMBL4098202
  SciTegic05292516403D

 45 48  0  0  0  0            999 V2000
   15.3547  -10.4260    0.0000 N   0  0
   15.3715  -11.7805   -0.0010 C   0  0
   14.1458   -9.7994    0.0006 C   0  0
   13.7241  -12.3839   -0.0015 S   0  0
   13.0457  -10.8057    0.0000 C   0  0
   16.3570  -12.4944   -0.0016 O   0  0
   13.9917   -8.5882    0.0015 O   0  0
   11.7730  -10.3821    0.0005 C   0  0
   10.4573  -11.0577    0.0002 C   0  0
    7.8244  -12.1288   -0.0001 C   0  0
    4.2064  -12.8503    0.0001 C   0  0
   10.2425  -12.4374    0.0009 C   0  0
    9.3206  -10.2277   -0.0007 C   0  0
    5.4476  -11.9463   -0.0003 C   0  0
    8.9412  -12.9643    0.0007 C   0  0
    8.0212  -10.7522   -0.0008 C   0  0
    6.6168  -12.7717   -0.0001 O   0  0
    2.9102  -12.1603   -0.0002 N   0  0
    2.8499  -10.7067   -0.0003 C   0  0
    1.7363  -12.8684   -0.0002 C   0  0
    0.5505  -12.2987   -0.0003 N   0  0
    1.6642  -14.6032    0.0001 S   0  0
   -0.0489  -14.5641    0.0000 C   0  0
   -0.4654  -13.2367   -0.0003 C   0  0
   -1.8470  -12.9592   -0.0004 C   0  0
   -2.7661  -14.0130   -0.0003 C   0  0
   -2.3261  -15.3331   -0.0001 C   0  0
   -0.9612  -15.6324    0.0000 C   0  0
   16.2173   -9.9038    0.0003 H   0  0
   11.6553   -9.2945    0.0014 H   0  0
    4.2753  -13.5049   -0.8790 H   0  0
    4.2752  -13.5041    0.8798 H   0  0
   11.0621  -13.1456    0.0017 H   0  0
    9.4299   -9.1433   -0.0012 H   0  0
    5.4425  -11.3192   -0.8996 H   0  0
    5.4426  -11.3185    0.8985 H   0  0
    8.7989  -14.0432    0.0013 H   0  0
    7.1916  -10.0532   -0.0014 H   0  0
    1.8309  -10.3047   -0.0004 H   0  0
    3.3443  -10.3046   -0.8908 H   0  0
    3.3442  -10.3045    0.8902 H   0  0
   -2.1815  -11.9269   -0.0006 H   0  0
   -3.8310  -13.7954   -0.0005 H   0  0
   -3.0514  -16.1437   -0.0001 H   0  0
   -0.6121  -16.6601    0.0002 H   0  0
  1 29  1  0
  2  1  1  0
  3  1  1  0
  4  2  1  0
  5  3  1  0
  5  4  1  0
  6  2  2  0
  7  3  2  0
  8  5  2  0
  8 30  1  0
  9  8  1  0
 10 15  2  0
 10 16  1  0
 11 14  1  0
 11 18  1  0
 11 31  1  0
 11 32  1  0
 12  9  2  0
 12 33  1  0
 13  9  1  0
 13 34  1  0
 14 17  1  0
 14 35  1  0
 14 36  1  0
 15 12  1  0
 15 37  1  0
 16 13  2  0
 16 38  1  0
 17 10  1  0
 18 19  1  0
 18 20  1  0
 19 39  1  0
 19 40  1  0
 19 41  1  0
 20 21  2  0
 21 24  1  0
 22 20  1  0
 23 22  1  0
 23 24  2  0
 24 25  1  0
 25 26  2  0
 25 42  1  0
 26 27  1  0
 26 43  1  0
 27 28  2  0
 27 44  1  0
 28 23  1  0
 28 45  1  0
M  END
> <Name>
CHEMBL4098202

> <Clean Energy>
47.8396

> <chembl_id>
CHEMBL4098202

> <chembl_pref_name>
None

> <efficacy>
0.379867047

> <Forcefield>
MMFF

> <ForcefieldBase>
MMFF

> <ForcefieldFFML>
<?xml version="1.0" encoding="UTF-8"?>
<!DOCTYPE ffml SYSTEM "Ffml.dtd">
<ffml version="1.0">
<forcefield name="MMFF" derivedFrom="MMFF" base="MMFF">
<atomTypes>
<atomType
name="N100"
element="N"
mass="14.007"
annotation=""/>
<atomType
name="C101"
element="C"
mass="12.011"
annotation=""/>
<atomType
name="S102"
element="S"
mass="32.066"
annotation=""/>
<atomType
name="O103"
element="O"
mass="16"
annotation=""/>
<atomType
name="H104"
element="H"
mass="1.008"
annotation=""/>
</atomTypes>
<parameters>
</parameters>
</forcefield>
</ffml>

> <Initial Potential Energy>
44.65359

> <Initial RMS Gradient>
30.38586

> <Minimization Criteria>
CONJUG> Minimization exiting with gradient tolerance ( 0.0100000) satisfied.

> <CHARMm Energy>
-14.53433

> <Potential Energy>
-14.53433

> <RMS Gradient>
0.00914

> <Bond Energy>
4.6775

> <Angle Energy>
26.33255

> <STRBend>
-0.45542

> <Dihedral Energy>
2.33081

> <OOPLane>
0

> <Van der Waals Energy>
48.46449

> <Electrostatic Energy>
-95.88426

> <Hydrogen Bond Energy>
0

> <Solvation Free Energy>
0

> <HasGasteigerCharges>
true

> <REMARK99>
REMARK  99  MacroMolecule created from Mol2 file
REMARK  99  CHEMBL4098202
REMARK  99  PROTEIN
REMARK  99  GASTEIGER
REMARK  99
REMARK  99

$$$$
CHEMBL4461490
  SciTegic05292516403D

 55 57  0  0  0  0            999 V2000
   32.6693  -11.3984    1.3736 C   0  0
   32.3618  -10.6005    0.0995 C   0  0
   32.6480  -11.3607   -1.2016 C   0  0
   19.7672  -10.9305   -0.5339 C   0  0
   19.9368  -12.2872   -0.2458 C   0  0
   21.2206  -12.8180   -0.0995 C   0  0
   22.3427  -12.0001   -0.2457 C   0  0
   22.1810  -10.6531   -0.5701 C   0  0
   20.8961  -10.1240   -0.7162 C   0  0
   18.4754  -10.3939   -0.6559 N   0  0
   18.1819   -9.7783    0.3934 N   0  0
   16.8952   -9.2289    0.2956 C   0  0
   16.7409   -7.8396    0.2468 C   0  0
   15.4673   -7.2665    0.1836 C   0  0
   14.3307   -8.0825    0.1785 C   0  0
   14.4769   -9.4728    0.2375 C   0  0
   15.7532  -10.0402    0.3011 C   0  0
   23.5364  -12.6320   -0.0438 O   0  0
   24.7057  -11.8013   -0.0782 C   0  0
   25.9383  -12.6395    0.2731 C   0  0
   27.2818  -11.9397    0.2073 C   0  0
   28.4453  -12.7244    0.1739 C   0  0
   29.7259  -12.1456    0.1365 C   0  0
   29.8777  -10.7644    0.1430 C   0  0
   28.7209   -9.9781    0.1868 C   0  0
   27.4399  -10.5510    0.2238 C   0  0
   31.0342  -10.0443    0.1129 O   0  0
   33.3226   -9.3796    0.1176 C   0  0
   34.6353   -9.7206    0.0372 O   0  0
   33.0398   -8.1941    0.2031 O   0  0
   13.0227   -7.4964    0.1199 C   0  0
   11.9645   -7.0213    0.0743 N   0  0
   32.1033  -12.3287    1.4432 H   0  0
   32.4162  -10.8103    2.2633 H   0  0
   33.7286  -11.6691    1.4404 H   0  0
   32.4710  -10.7131   -2.0687 H   0  0
   32.0115  -12.2366   -1.3360 H   0  0
   33.6857  -11.7093   -1.2500 H   0  0
   19.0667  -12.9259   -0.1199 H   0  0
   21.3444  -13.8708    0.1419 H   0  0
   23.0231   -9.9834   -0.7092 H   0  0
   20.7675   -9.0726   -0.9601 H   0  0
   17.6244   -7.2049    0.2566 H   0  0
   15.3685   -6.1831    0.1422 H   0  0
   13.6023  -10.1215    0.2382 H   0  0
   15.8638  -11.1208    0.3554 H   0  0
   24.8275  -11.3807   -1.0842 H   0  0
   24.6014  -10.9929    0.6563 H   0  0
   25.8106  -13.0472    1.2844 H   0  0
   25.9586  -13.5063   -0.4008 H   0  0
   28.3596  -13.8098    0.1779 H   0  0
   30.5695  -12.8232    0.1036 H   0  0
   28.8167   -8.8935    0.1972 H   0  0
   26.5858   -9.8811    0.2699 H   0  0
   35.1148   -8.8630    0.0653 H   0  0
  1 33  1  0
  1 34  1  0
  1 35  1  0
  2  1  1  0
  2 28  1  0
  3  2  1  0
  3 36  1  0
  3 37  1  0
  3 38  1  0
  4  5  2  0
  4 10  1  0
  5  6  1  0
  5 39  1  0
  6  7  2  0
  6 40  1  0
  7  8  1  0
  7 18  1  0
  8  9  2  0
  8 41  1  0
  9  4  1  0
  9 42  1  0
 10 11  2  0
 11 12  1  0
 12 13  2  0
 13 14  1  0
 13 43  1  0
 14 15  2  0
 14 44  1  0
 15 16  1  0
 15 31  1  0
 16 17  2  0
 16 45  1  0
 17 12  1  0
 17 46  1  0
 18 19  1  0
 19 20  1  0
 19 47  1  0
 19 48  1  0
 20 21  1  0
 20 49  1  0
 20 50  1  0
 21 22  2  0
 22 23  1  0
 22 51  1  0
 23 24  2  0
 23 52  1  0
 24 25  1  0
 24 27  1  0
 25 26  2  0
 25 53  1  0
 26 21  1  0
 26 54  1  0
 27  2  1  0
 28 29  1  0
 28 30  2  0
 29 55  1  0
 31 32  3  0
M  END
> <Name>
CHEMBL4461490

> <Clean Energy>
100.736

> <chembl_id>
CHEMBL4461490

> <chembl_pref_name>
None

> <efficacy>
0.12

> <Forcefield>
MMFF

> <ForcefieldBase>
MMFF

> <ForcefieldFFML>
<?xml version="1.0" encoding="UTF-8"?>
<!DOCTYPE ffml SYSTEM "Ffml.dtd">
<ffml version="1.0">
<forcefield name="MMFF" derivedFrom="MMFF" base="MMFF">
<atomTypes>
<atomType
name="C100"
element="C"
mass="12.011"
annotation=""/>
<atomType
name="N101"
element="N"
mass="14.007"
annotation=""/>
<atomType
name="O102"
element="O"
mass="16"
annotation=""/>
<atomType
name="H103"
element="H"
mass="1.008"
annotation=""/>
</atomTypes>
<parameters>
</parameters>
</forcefield>
</ffml>

> <Initial Potential Energy>
409.90724

> <Initial RMS Gradient>
33.76409

> <Minimization Criteria>
STEEPD> Minimization exiting with gradient tolerance ( 3.0000000) satisfied.

> <CHARMm Energy>
106.93905

> <Potential Energy>
106.93905

> <RMS Gradient>
0.11748

> <Bond Energy>
6.7944

> <Angle Energy>
25.40995

> <STRBend>
0.19159

> <Dihedral Energy>
7.64384

> <OOPLane>
0.02788

> <Van der Waals Energy>
63.35376

> <Electrostatic Energy>
3.51763

> <Hydrogen Bond Energy>
0

> <Solvation Free Energy>
0

> <HasGasteigerCharges>
true

> <REMARK99>
REMARK  99  MacroMolecule created from Mol2 file
REMARK  99  CHEMBL4461490
REMARK  99  PROTEIN
REMARK  99  GASTEIGER
REMARK  99
REMARK  99

$$$$
CHEMBL4568299
  SciTegic05292516403D

 64 68  0  0  0  0            999 V2000
   25.2190   -0.8571   -0.0045 C   0  0
   25.1795   -1.9862   -0.8255 C   0  0
   26.3241   -2.7622   -1.0377 C   0  0
   26.4246   -0.4822    0.6113 C   0  0
   27.5943   -1.2499    0.4096 C   0  0
   27.5225   -2.3740   -0.4150 C   0  0
   28.7960   -2.9171   -0.4770 N   0  0
   29.6705   -2.1649    0.2849 C   0  0
   28.9464   -1.1312    0.8630 C   0  0
   29.4913   -0.0704    1.7571 C   0  0
   31.1306   -2.4495    0.3817 C   0  0
   24.0223    0.0095    0.2109 C   0  0
   24.1516    1.1822    0.5502 O   0  0
   22.7932   -0.5733    0.0260 N   0  0
   29.1681   -4.0318   -1.3487 C   0  0
   28.7153   -5.3747   -0.8303 C   0  0
   29.1706   -5.8850    0.3933 C   0  0
   28.7686   -7.1518    0.8301 C   0  0
   27.9108   -7.9401    0.0515 C   0  0
   27.4523   -7.4252   -1.1675 C   0  0
   27.8579   -6.1646   -1.6084 C   0  0
   27.5046   -9.2804    0.4880 C   0  0
   26.3510   -9.4173    1.2831 C   0  0
   25.9185  -10.6728    1.7163 C   0  0
   26.6233  -11.8171    1.3542 C   0  0
   27.7667  -11.7081    0.5651 C   0  0
   28.2157  -10.4479    0.1429 C   0  0
   29.4377  -10.3867   -0.6982 C   0  0
   30.4890  -11.0054   -0.1203 O   0  0
   29.4882   -9.7990   -1.7637 O   0  0
   21.5588    0.1654    0.1590 C   0  0
   20.3692   -0.6489   -0.3089 C   0  0
   19.1042   -0.0657   -0.3307 C   0  0
   18.0222   -0.8243   -0.7685 C   0  0
   18.2254   -2.1382   -1.1702 C   0  0
   19.5127   -2.6469   -1.1141 C   0  0
   20.5876   -1.9400   -0.6927 N   0  0
   24.2705   -2.2680   -1.3493 H   0  0
   26.2759   -3.6293   -1.6873 H   0  0
   26.4601    0.4093    1.2326 H   0  0
   28.7096    0.6103    2.1062 H   0  0
   30.2433    0.5236    1.2276 H   0  0
   29.9603   -0.5194    2.6387 H   0  0
   31.6137   -1.8096    1.1265 H   0  0
   31.6198   -2.2656   -0.5802 H   0  0
   31.3136   -3.4864    0.6767 H   0  0
   22.6832   -1.5596   -0.1810 H   0  0
   28.7393   -3.8145   -2.3348 H   0  0
   30.2544   -4.0396   -1.4822 H   0  0
   29.8533   -5.3104    1.0157 H   0  0
   29.1495   -7.5281    1.7778 H   0  0
   26.7914   -8.0169   -1.7978 H   0  0
   27.5029   -5.8120   -2.5744 H   0  0
   25.7774   -8.5329    1.5619 H   0  0
   25.0193  -10.7594    2.3232 H   0  0
   26.2748  -12.7940    1.6782 H   0  0
   28.2944  -12.6083    0.2607 H   0  0
   30.3218  -11.3073    0.7925 H   0  0
   21.4368    0.4301    1.2149 H   0  0
   21.6395    1.0852   -0.4309 H   0  0
   18.9588    0.9635   -0.0161 H   0  0
   17.0272   -0.3901   -0.7971 H   0  0
   17.4013   -2.7507   -1.5177 H   0  0
   19.7185   -3.6702   -1.4181 H   0  0
  1  2  2  0
  1 12  1  0
  2  3  1  0
  2 38  1  0
  3  6  2  0
  3 39  1  0
  4  1  1  0
  4 40  1  0
  5  4  2  0
  5  6  1  0
  6  7  1  0
  7  8  1  0
  7 15  1  0
  8  9  2  0
  8 11  1  0
  9  5  1  0
  9 10  1  0
 10 41  1  0
 10 42  1  0
 10 43  1  0
 11 44  1  0
 11 45  1  0
 11 46  1  0
 12 13  2  0
 12 14  1  0
 14 31  1  0
 14 47  1  0
 15 16  1  0
 15 48  1  0
 15 49  1  0
 16 17  2  0
 17 18  1  0
 17 50  1  0
 18 19  2  0
 18 51  1  0
 19 20  1  0
 19 22  1  0
 20 21  2  0
 20 52  1  0
 21 16  1  0
 21 53  1  0
 22 23  2  0
 23 24  1  0
 23 54  1  0
 24 25  2  0
 24 55  1  0
 25 26  1  0
 25 56  1  0
 26 27  2  0
 26 57  1  0
 27 22  1  0
 27 28  1  0
 28 29  1  0
 28 30  2  0
 29 58  1  0
 31 32  1  0
 31 59  1  0
 31 60  1  0
 32 33  2  0
 33 34  1  0
 33 61  1  0
 34 35  2  0
 34 62  1  0
 35 36  1  0
 35 63  1  0
 36 37  2  0
 36 64  1  0
 37 32  1  0
M  END
> <Name>
CHEMBL4568299

> <Clean Energy>
41.303001

> <chembl_id>
CHEMBL4568299

> <chembl_pref_name>
None

> <efficacy>
0.15

> <Forcefield>
MMFF

> <ForcefieldBase>
MMFF

> <ForcefieldFFML>
<?xml version="1.0" encoding="UTF-8"?>
<!DOCTYPE ffml SYSTEM "Ffml.dtd">
<ffml version="1.0">
<forcefield name="MMFF" derivedFrom="MMFF" base="MMFF">
<atomTypes>
<atomType
name="C100"
element="C"
mass="12.011"
annotation=""/>
<atomType
name="N101"
element="N"
mass="14.007"
annotation=""/>
<atomType
name="O102"
element="O"
mass="16"
annotation=""/>
<atomType
name="H103"
element="H"
mass="1.008"
annotation=""/>
</atomTypes>
<parameters>
</parameters>
</forcefield>
</ffml>

> <Initial Potential Energy>
451.04125

> <Initial RMS Gradient>
122.27933

> <Minimization Criteria>
CONJUG> Minimization exiting with gradient tolerance ( 0.0100000) satisfied.

> <CHARMm Energy>
94.03253

> <Potential Energy>
94.03253

> <RMS Gradient>
0.00866

> <Bond Energy>
8.61905

> <Angle Energy>
9.38351

> <STRBend>
0.21725

> <Dihedral Energy>
13.19968

> <OOPLane>
0.12843

> <Van der Waals Energy>
74.09096

> <Electrostatic Energy>
-11.60635

> <Hydrogen Bond Energy>
0

> <Solvation Free Energy>
0

> <HasGasteigerCharges>
true

> <REMARK99>
REMARK  99  MacroMolecule created from Mol2 file
REMARK  99  CHEMBL4568299
REMARK  99  PROTEIN
REMARK  99  GASTEIGER
REMARK  99
REMARK  99

$$$$
CHEMBL2338472
  SciTegic05292516403D

 43 46  0  0  0  0            999 V2000
    5.1463  -20.8637    0.2474 C   0  0
    4.7104  -21.0368   -1.0706 C   0  0
    4.4308  -19.9238   -1.8652 C   0  0
    4.4691  -18.6443   -1.3059 C   0  0
    4.7787  -18.4790    0.0459 C   0  0
    5.1752  -19.5844    0.8030 C   0  0
    3.6605  -15.9875    0.3071 S   0  0
    4.7227  -17.2278    0.7159 N   0  0
    2.0469  -16.7291    0.3492 C   0  0
    1.0267  -16.3269   -0.5181 C   0  0
   -0.2093  -16.9876   -0.4823 C   0  0
   -0.4294  -18.0232    0.4230 C   0  0
    0.5707  -18.4057    1.3107 C   0  0
    1.8049  -17.7543    1.2819 C   0  0
    4.5218  -22.2808   -1.6318 O   0  0
    2.2026  -22.4043   -0.8730 C   0  0
    3.4392  -22.9760   -1.1394 C   0  0
    3.5990  -24.3312   -0.8805 C   0  0
    1.1648  -23.0673   -0.3154 N   0  0
    3.9902  -15.5785   -1.0403 O   0  0
    3.7125  -15.0499    1.4098 O   0  0
   -1.9523  -18.8201    0.4573 Cl  0  0
    1.1444  -15.0021   -1.6181 Cl  0  0
    5.6389  -22.1886    1.2374 Cl  0  0
    2.5489  -25.0518   -0.2941 C   0  0
    1.3431  -24.3643   -0.0156 C   0  0
    0.3093  -25.0556    0.6000 C   0  0
    0.4401  -26.3966    0.9525 C   0  0
    1.6249  -27.0671    0.6711 C   0  0
    2.6757  -26.4105    0.0380 C   0  0
    4.1482  -20.0519   -2.9077 H   0  0
    4.2423  -17.7963   -1.9482 H   0  0
    5.4765  -19.4619    1.8400 H   0  0
    5.1406  -17.1153    1.6386 H   0  0
   -1.0093  -16.6837   -1.1547 H   0  0
    0.3948  -19.2059    2.0268 H   0  0
    2.5665  -18.0530    1.9981 H   0  0
    1.9934  -21.3621   -1.0914 H   0  0
    4.5527  -24.8060   -1.0905 H   0  0
   -0.6101  -24.5181    0.8203 H   0  0
   -0.3788  -26.9275    1.4360 H   0  0
    1.7293  -28.1146    0.9409 H   0  0
    3.5826  -26.9742   -0.1822 H   0  0
  1  2  1  0
  1  6  2  0
  1 24  1  0
  2  3  2  0
  2 15  1  0
  3  4  1  0
  3 31  1  0
  4  5  2  0
  4 32  1  0
  5  6  1  0
  5  8  1  0
  6 33  1  0
  7  8  1  0
  7  9  1  0
  7 20  2  0
  7 21  2  0
  8 34  1  0
  9 10  1  0
  9 14  2  0
 10 11  2  0
 10 23  1  0
 11 12  1  0
 11 35  1  0
 12 13  2  0
 12 22  1  0
 13 14  1  0
 13 36  1  0
 14 37  1  0
 15 17  1  0
 16 17  1  0
 16 19  2  0
 16 38  1  0
 17 18  2  0
 18 25  1  0
 18 39  1  0
 25 26  1  0
 26 19  1  0
 26 27  2  0
 27 28  1  0
 27 40  1  0
 28 29  2  0
 28 41  1  0
 29 30  1  0
 29 42  1  0
 30 25  2  0
 30 43  1  0
M  END
> <Name>
CHEMBL2338472

> <Clean Energy>
31.6145

> <chembl_id>
CHEMBL2338472

> <chembl_pref_name>
None

> <efficacy>
0.3

> <Forcefield>
MMFF

> <ForcefieldBase>
MMFF

> <ForcefieldFFML>
<?xml version="1.0" encoding="UTF-8"?>
<!DOCTYPE ffml SYSTEM "Ffml.dtd">
<ffml version="1.0">
<forcefield name="MMFF" derivedFrom="MMFF" base="MMFF">
<atomTypes>
<atomType
name="C100"
element="C"
mass="12.011"
annotation=""/>
<atomType
name="S101"
element="S"
mass="32.066"
annotation=""/>
<atomType
name="N102"
element="N"
mass="14.007"
annotation=""/>
<atomType
name="O103"
element="O"
mass="16"
annotation=""/>
<atomType
name="Cl104"
element="Cl"
mass="35.453"
annotation=""/>
<atomType
name="H105"
element="H"
mass="1.008"
annotation=""/>
</atomTypes>
<parameters>
</parameters>
</forcefield>
</ffml>

> <Initial Potential Energy>
620.96064

> <Initial RMS Gradient>
287.80317

> <Minimization Criteria>
STEEPD> Minimization exiting with gradient tolerance ( 3.0000000) satisfied.

> <CHARMm Energy>
24.55971

> <Potential Energy>
24.55971

> <RMS Gradient>
0.02308

> <Bond Energy>
4.96145

> <Angle Energy>
14.9783

> <STRBend>
0.86356

> <Dihedral Energy>
7.67852

> <OOPLane>
0.03677

> <Van der Waals Energy>
64.1278

> <Electrostatic Energy>
-68.08669

> <Hydrogen Bond Energy>
0

> <Solvation Free Energy>
0

> <HasGasteigerCharges>
true

> <REMARK99>
REMARK  99  MacroMolecule created from Mol2 file
REMARK  99  CHEMBL2338472
REMARK  99  PROTEIN
REMARK  99  GASTEIGER
REMARK  99
REMARK  99

$$$$
CHEMBL2331782
  SciTegic05292516403D

 37 39  0  0  0  0            999 V2000
    5.6830  -29.4240   -0.8374 C   0  0
    5.0558  -30.1516    0.1742 C   0  0
    4.3741  -29.4809    1.1938 C   0  0
    4.2518  -28.0910    1.1554 C   0  0
    4.8111  -27.3646    0.1037 C   0  0
    5.5605  -28.0337   -0.8707 C   0  0
    3.4765  -25.0119    0.6514 S   0  0
    4.6722  -25.9585   -0.0462 N   0  0
    1.9365  -25.6043   -0.0031 C   0  0
    0.7310  -25.3114    0.6454 C   0  0
   -0.4725  -25.8116    0.1316 C   0  0
   -0.4720  -26.5827   -1.0284 C   0  0
    0.7195  -26.8516   -1.6948 C   0  0
    1.9235  -26.3564   -1.1890 C   0  0
    5.1233  -31.5287    0.1760 O   0  0
    2.9495  -31.8867   -0.8518 C   0  0
    3.9048  -32.1620    0.1232 C   0  0
    3.6232  -33.1283    1.0825 C   0  0
    2.3768  -33.7418    1.0642 C   0  0
    1.4680  -33.3768    0.0796 C   0  0
    1.7276  -32.4652   -0.8890 N   0  0
    1.9706  -34.9165    2.2457 Cl  0  0
    3.5096  -25.2528    2.0766 O   0  0
    3.6698  -23.6921    0.0925 O   0  0
   -1.9542  -27.1891   -1.6529 Cl  0  0
    0.6046  -24.2971    2.0371 Cl  0  0
    6.5626  -30.2084   -2.0955 Cl  0  0
    3.9248  -30.0320    2.0165 H   0  0
    3.7133  -27.6108    1.9670 H   0  0
    6.0323  -27.4792   -1.6773 H   0  0
    5.2568  -25.4549   -0.7106 H   0  0
   -1.4135  -25.5896    0.6308 H   0  0
    0.7161  -27.4401   -2.6099 H   0  0
    2.8348  -26.5582   -1.7439 H   0  0
    3.1375  -31.1715   -1.6469 H   0  0
    4.3596  -33.3806    1.8391 H   0  0
    0.4745  -33.8112    0.0383 H   0  0
  1  2  1  0
  1  6  2  0
  1 27  1  0
  2  3  2  0
  2 15  1  0
  3  4  1  0
  3 28  1  0
  4  5  2  0
  4 29  1  0
  5  6  1  0
  5  8  1  0
  6 30  1  0
  7  8  1  0
  7  9  1  0
  7 23  2  0
  7 24  2  0
  8 31  1  0
  9 10  1  0
  9 14  2  0
 10 11  2  0
 10 26  1  0
 11 12  1  0
 11 32  1  0
 12 13  2  0
 12 25  1  0
 13 14  1  0
 13 33  1  0
 14 34  1  0
 15 17  1  0
 16 17  1  0
 16 21  2  0
 16 35  1  0
 17 18  2  0
 18 19  1  0
 18 36  1  0
 19 20  2  0
 19 22  1  0
 20 21  1  0
 20 37  1  0
M  END
> <Name>
CHEMBL2331782

> <Clean Energy>
32.736

> <chembl_id>
CHEMBL2331782

> <chembl_pref_name>
None

> <efficacy>
0.1

> <Forcefield>
MMFF

> <ForcefieldBase>
MMFF

> <ForcefieldFFML>
<?xml version="1.0" encoding="UTF-8"?>
<!DOCTYPE ffml SYSTEM "Ffml.dtd">
<ffml version="1.0">
<forcefield name="MMFF" derivedFrom="MMFF" base="MMFF">
<atomTypes>
<atomType
name="C100"
element="C"
mass="12.011"
annotation=""/>
<atomType
name="S101"
element="S"
mass="32.066"
annotation=""/>
<atomType
name="N102"
element="N"
mass="14.007"
annotation=""/>
<atomType
name="O103"
element="O"
mass="16"
annotation=""/>
<atomType
name="Cl104"
element="Cl"
mass="35.453"
annotation=""/>
<atomType
name="H105"
element="H"
mass="1.008"
annotation=""/>
</atomTypes>
<parameters>
</parameters>
</forcefield>
</ffml>

> <Initial Potential Energy>
630.33042

> <Initial RMS Gradient>
329.56105

> <Minimization Criteria>
STEEPD> Minimization exiting with gradient tolerance ( 3.0000000) satisfied.

> <CHARMm Energy>
18.04003

> <Potential Energy>
18.04003

> <RMS Gradient>
0.22191

> <Bond Energy>
3.68404

> <Angle Energy>
14.13473

> <STRBend>
0.40704

> <Dihedral Energy>
6.29271

> <OOPLane>
0.03148

> <Van der Waals Energy>
52.5011

> <Electrostatic Energy>
-59.01107

> <Hydrogen Bond Energy>
0

> <Solvation Free Energy>
0

> <HasGasteigerCharges>
true

> <REMARK99>
REMARK  99  MacroMolecule created from Mol2 file
REMARK  99  CHEMBL2331782
REMARK  99  PROTEIN
REMARK  99  GASTEIGER
REMARK  99
REMARK  99

$$$$
CHEMBL2312710
  SciTegic05292516403D

 48 50  0  0  0  0            999 V2000
   29.7619   -3.8191   -1.3930 C   0  0
   29.2511   -4.7200   -0.4603 C   0  0
   30.0257   -5.0745    0.6429 C   0  0
   31.3079   -4.5303    0.8117 C   0  0
   31.8407   -3.6225   -0.1187 C   0  0
   31.0451   -3.2772   -1.2239 C   0  0
   33.1837   -3.0231    0.0750 C   0  0
   34.3523   -3.6336   -0.4532 C   0  0
   35.6270   -3.0448   -0.2598 C   0  0
   35.7618   -1.8550    0.4463 C   0  0
   34.6153   -1.2571    0.9756 C   0  0
   33.3340   -1.8171    0.7997 C   0  0
   36.9221   -1.1807    0.7120 O   0  0
   38.1682   -1.5840    0.0876 C   0  0  1  0  0  0
   39.0069   -0.2912   -0.0057 C   0  0
   38.3097    0.8223    0.3423 O   0  0
   40.1739   -0.2244   -0.3662 O   0  0
   38.8861   -2.6063    0.9846 C   0  0
   39.8168   -3.6082    0.3275 C   0  0
   40.0927   -4.8064    1.0103 C   0  0
   40.9939   -5.7418    0.4947 C   0  0
   41.6439   -5.4910   -0.7096 C   0  0
   41.3916   -4.3067   -1.3958 C   0  0
   40.4854   -3.3724   -0.8813 C   0  0
   34.2669   -4.9257   -1.2285 C   0  0
   32.1459   -1.1050    1.3982 C   0  0
   29.1688   -3.5305   -2.2564 H   0  0
   28.2544   -5.1415   -0.5910 H   0  0
   29.6379   -5.7732    1.3795 H   0  0
   31.8878   -4.8134    1.6877 H   0  0
   31.4203   -2.5700   -1.9611 H   0  0
   36.4966   -3.5531   -0.6668 H   0  0
   34.7186   -0.3322    1.5406 H   0  0
   37.9862   -1.9225   -0.9380 H   0  0
   37.4059    0.5701    0.6296 H   0  0
   39.4632   -2.0803    1.7573 H   0  0
   38.1224   -3.1794    1.5276 H   0  0
   39.6119   -5.0165    1.9642 H   0  0
   41.1948   -6.6608    1.0393 H   0  0
   42.3531   -6.2116   -1.1083 H   0  0
   41.9096   -4.1006   -2.3296 H   0  0
   40.3393   -2.4536   -1.4423 H   0  0
   35.2542   -5.2556   -1.5691 H   0  0
   33.6420   -4.7972   -2.1180 H   0  0
   33.8554   -5.7215   -0.5997 H   0  0
   31.6438   -1.7461    2.1295 H   0  0
   31.4393   -0.8133    0.6149 H   0  0
   32.4481   -0.1907    1.9202 H   0  0
  1  2  2  0
  1 27  1  0
  2  3  1  0
  2 28  1  0
  3  4  2  0
  3 29  1  0
  4  5  1  0
  4 30  1  0
  5  6  2  0
  5  7  1  0
  6  1  1  0
  6 31  1  0
  7  8  2  0
  8  9  1  0
  8 25  1  0
  9 10  2  0
  9 32  1  0
 10 11  1  0
 10 13  1  0
 11 12  2  0
 11 33  1  0
 12  7  1  0
 12 26  1  0
 13 14  1  0
 14 15  1  0
 14 18  1  0
 14 34  1  0
 15 16  1  0
 15 17  2  0
 16 35  1  0
 18 19  1  0
 18 36  1  0
 18 37  1  0
 19 20  2  0
 20 21  1  0
 20 38  1  0
 21 22  2  0
 21 39  1  0
 22 23  1  0
 22 40  1  0
 23 24  2  0
 23 41  1  0
 24 19  1  0
 24 42  1  0
 25 43  1  0
 25 44  1  0
 25 45  1  0
 26 46  1  0
 26 47  1  0
 26 48  1  0
M  END
> <Name>
CHEMBL2312710

> <Clean Energy>
32.432499

> <chembl_id>
CHEMBL2312710

> <chembl_pref_name>
None

> <efficacy>
0.13

> <Forcefield>
MMFF

> <ForcefieldBase>
MMFF

> <ForcefieldFFML>
<?xml version="1.0" encoding="UTF-8"?>
<!DOCTYPE ffml SYSTEM "Ffml.dtd">
<ffml version="1.0">
<forcefield name="MMFF" derivedFrom="MMFF" base="MMFF">
<atomTypes>
<atomType
name="C100"
element="C"
mass="12.011"
annotation=""/>
<atomType
name="O101"
element="O"
mass="16"
annotation=""/>
<atomType
name="H102"
element="H"
mass="1.008"
annotation=""/>
</atomTypes>
<parameters>
</parameters>
</forcefield>
</ffml>

> <Initial Potential Energy>
252.39143

> <Initial RMS Gradient>
51.83925

> <Minimization Criteria>
STEEPD> Minimization exiting with gradient tolerance ( 3.0000000) satisfied.

> <CHARMm Energy>
83.03975

> <Potential Energy>
83.03975

> <RMS Gradient>
0.01733

> <Bond Energy>
8.85397

> <Angle Energy>
13.21762

> <STRBend>
-0.03113

> <Dihedral Energy>
6.55664

> <OOPLane>
0.04953

> <Van der Waals Energy>
57.95212

> <Electrostatic Energy>
-3.55901

> <Hydrogen Bond Energy>
0

> <Solvation Free Energy>
0

> <HasGasteigerCharges>
true

> <REMARK99>
REMARK  99  MacroMolecule created from Mol2 file
REMARK  99  CHEMBL2312710
REMARK  99  PROTEIN
REMARK  99  GASTEIGER
REMARK  99
REMARK  99

$$$$
CHEMBL4444322
  SciTegic05292516403D

 56 58  0  0  0  0            999 V2000
   17.6403   -4.9341   -1.1347 C   0  0
   17.0899   -4.0941    0.0235 C   0  0
   17.0497   -4.8277    1.3715 C   0  0
    4.5289   -3.7621    0.3426 C   0  0
    4.6364   -5.1524    0.2217 C   0  0
    5.8917   -5.7724    0.1201 C   0  0
    7.0779   -5.0214    0.1461 C   0  0
    6.9716   -3.6316    0.2873 C   0  0
    5.7117   -3.0157    0.3848 C   0  0
    3.2863   -3.1015    0.4914 N   0  0
    2.4680   -3.4575   -0.3870 N   0  0
    1.2094   -2.8411   -0.2181 C   0  0
    1.0458   -1.4471   -0.1748 C   0  0
   -0.2300   -0.8706   -0.0739 C   0  0
   -1.3629   -1.6959   -0.0239 C   0  0
   -1.2184   -3.0884   -0.0697 C   0  0
    0.0631   -3.6486   -0.1706 C   0  0
    8.3965   -5.7577    0.0395 C   0  0
    9.6535   -4.8942   -0.0574 C   0  0
   10.7877   -5.7539   -0.1956 O   0  0
   12.0084   -5.1395   -0.2400 C   0  0
   13.1003   -6.0063   -0.2964 C   0  0
   14.4096   -5.5126   -0.3331 C   0  0
   14.6371   -4.1420   -0.3058 C   0  0
   13.5410   -3.2757   -0.2752 C   0  0
   12.2329   -3.7654   -0.2394 C   0  0
   15.8327   -3.5011   -0.3365 O   0  0
   18.0287   -2.8714    0.2014 C   0  0
   19.3165   -3.1818    0.4982 O   0  0
   17.7044   -1.6957    0.0970 O   0  0
   -2.7074   -1.0983    0.0614 N   0  3
   -3.6815   -1.8651    0.0722 O   0  0
   -2.7858    0.1377    0.1143 O   0  5
   16.9824   -5.7598   -1.4094 H   0  0
   18.6200   -5.3635   -0.9036 H   0  0
   17.7491   -4.3180   -2.0355 H   0  0
   16.5888   -4.1966    2.1402 H   0  0
   18.0497   -5.1028    1.7226 H   0  0
   16.4728   -5.7540    1.3319 H   0  0
    3.7369   -5.7644    0.2110 H   0  0
    5.9260   -6.8551    0.0228 H   0  0
    7.8501   -2.9932    0.3277 H   0  0
    5.6518   -1.9356    0.4971 H   0  0
    1.9235   -0.8059   -0.2317 H   0  0
   -0.3256    0.2142   -0.0458 H   0  0
   -2.0857   -3.7457   -0.0370 H   0  0
    0.1751   -4.7305   -0.2193 H   0  0
    8.4948   -6.4221    0.9079 H   0  0
    8.3604   -6.4118   -0.8418 H   0  0
    9.5800   -4.2381   -0.9339 H   0  0
    9.7542   -4.2942    0.8559 H   0  0
   12.9252   -7.0789   -0.3121 H   0  0
   15.2130   -6.2353   -0.3902 H   0  0
   13.7067   -2.2000   -0.2721 H   0  0
   11.4232   -3.0439   -0.2118 H   0  0
   19.5540   -4.1246    0.5535 H   0  0
  1 34  1  0
  1 35  1  0
  1 36  1  0
  2  1  1  0
  2 28  1  0
  3  2  1  0
  3 37  1  0
  3 38  1  0
  3 39  1  0
  4  5  2  0
  4 10  1  0
  5  6  1  0
  5 40  1  0
  6  7  2  0
  6 41  1  0
  7  8  1  0
  7 18  1  0
  8  9  2  0
  8 42  1  0
  9  4  1  0
  9 43  1  0
 10 11  2  0
 11 12  1  0
 12 13  2  0
 13 14  1  0
 13 44  1  0
 14 15  2  0
 14 45  1  0
 15 16  1  0
 15 31  1  0
 16 17  2  0
 16 46  1  0
 17 12  1  0
 17 47  1  0
 18 19  1  0
 18 48  1  0
 18 49  1  0
 19 20  1  0
 19 50  1  0
 19 51  1  0
 20 21  1  0
 21 22  2  0
 22 23  1  0
 22 52  1  0
 23 24  2  0
 23 53  1  0
 24 25  1  0
 24 27  1  0
 25 26  2  0
 25 54  1  0
 26 21  1  0
 26 55  1  0
 27  2  1  0
 28 29  1  0
 28 30  2  0
 29 56  1  0
 31 32  2  0
 31 33  1  0
M  CHG  2  31   1  33  -1
M  END
> <Name>
CHEMBL4444322

> <Clean Energy>
20.0744

> <chembl_id>
CHEMBL4444322

> <chembl_pref_name>
None

> <efficacy>
0.1

> <Forcefield>
MMFF

> <ForcefieldBase>
MMFF

> <ForcefieldFFML>
<?xml version="1.0" encoding="UTF-8"?>
<!DOCTYPE ffml SYSTEM "Ffml.dtd">
<ffml version="1.0">
<forcefield name="MMFF" derivedFrom="MMFF" base="MMFF">
<atomTypes>
<atomType
name="C100"
element="C"
mass="12.011"
annotation=""/>
<atomType
name="N101"
element="N"
mass="14.007"
annotation=""/>
<atomType
name="O102"
element="O"
mass="16"
annotation=""/>
<atomType
name="H103"
element="H"
mass="1.008"
annotation=""/>
</atomTypes>
<parameters>
</parameters>
</forcefield>
</ffml>

> <Initial Potential Energy>
212.92783

> <Initial RMS Gradient>
34.02292

> <Minimization Criteria>
STEEPD> Minimization exiting with gradient tolerance ( 3.0000000) satisfied.

> <CHARMm Energy>
136.45753

> <Potential Energy>
136.45753

> <RMS Gradient>
0.13332

> <Bond Energy>
7.99567

> <Angle Energy>
28.01425

> <STRBend>
0.78951

> <Dihedral Energy>
3.35586

> <OOPLane>
0.0541

> <Van der Waals Energy>
70.50787

> <Electrostatic Energy>
25.74027

> <Hydrogen Bond Energy>
0

> <Solvation Free Energy>
0

> <HasGasteigerCharges>
true

> <REMARK99>
REMARK  99  MacroMolecule created from Mol2 file
REMARK  99  CHEMBL4444322
REMARK  99  PROTEIN
REMARK  99  GASTEIGER
REMARK  99
REMARK  99

$$$$
CHEMBL2312700
  SciTegic05292516403D

 46 48  0  0  0  0            999 V2000
   21.6877  -12.0217    1.0807 C   0  0
   21.4886  -13.3964    1.1645 C   0  0
   22.5414  -14.2642    0.8670 C   0  0
   23.7970  -13.7612    0.4757 C   0  0
   24.0204  -12.3663    0.4020 C   0  0
   22.9396  -11.5148    0.7073 C   0  0
   25.3244  -11.7854   -0.0048 C   0  0
   26.5002  -12.0201    0.7286 C   0  0
   27.7411  -11.4836    0.3342 C   0  0
   27.8354  -10.7014   -0.8129 C   0  0
   26.6700  -10.4455   -1.5425 C   0  0
   25.4325  -10.9768   -1.1458 C   0  0
   28.9694  -10.1315   -1.3273 O   0  0
   30.2630  -10.4606   -0.7639 C   0  0  2  0  0  0
   31.2149   -9.3255   -1.1912 C   0  0
   30.5845   -8.2995   -1.8200 O   0  0
   32.4227   -9.3038   -0.9990 O   0  0
   30.7703  -11.7956   -1.3366 C   0  0
   31.6601  -12.5641   -0.3843 C   0  0
   33.0433  -12.3304   -0.3515 C   0  0
   33.8660  -13.0297    0.5340 C   0  0
   33.3153  -13.9767    1.3933 C   0  0
   31.9434  -14.2245    1.3661 C   0  0
   31.1182  -13.5227    0.4831 C   0  0
   24.8691  -14.5673    0.1721 O   0  0
   24.5641  -15.8751   -0.2931 C   0  0
   20.8761  -11.3370    1.3132 H   0  0
   20.5203  -13.7947    1.4671 H   0  0
   22.3664  -15.3312    0.9606 H   0  0
   23.0771  -10.4357    0.6643 H   0  0
   26.4565  -12.6387    1.6242 H   0  0
   28.6015  -11.7062    0.9553 H   0  0
   26.7159   -9.8362   -2.4421 H   0  0
   24.5504  -10.7682   -1.7502 H   0  0
   30.2208  -10.4239    0.3304 H   0  0
   29.6271   -8.4963   -1.9025 H   0  0
   29.9266  -12.4410   -1.6132 H   0  0
   31.3104  -11.6343   -2.2794 H   0  0
   33.4956  -11.5968   -1.0164 H   0  0
   34.9363  -12.8329    0.5511 H   0  0
   33.9555  -14.5234    2.0812 H   0  0
   31.5184  -14.9707    2.0323 H   0  0
   30.0532  -13.7428    0.4706 H   0  0
   25.4767  -16.2971   -0.7252 H   0  0
   23.8007  -15.8584   -1.0786 H   0  0
   24.2613  -16.5210    0.5369 H   0  0
  1  2  2  0
  1 27  1  0
  2  3  1  0
  2 28  1  0
  3  4  2  0
  3 29  1  0
  4  5  1  0
  4 25  1  0
  5  6  2  0
  5  7  1  0
  6  1  1  0
  6 30  1  0
  7  8  2  0
  8  9  1  0
  8 31  1  0
  9 10  2  0
  9 32  1  0
 10 11  1  0
 10 13  1  0
 11 12  2  0
 11 33  1  0
 12  7  1  0
 12 34  1  0
 13 14  1  0
 14 15  1  0
 14 18  1  0
 14 35  1  0
 15 16  1  0
 15 17  2  0
 16 36  1  0
 18 19  1  0
 18 37  1  0
 18 38  1  0
 19 20  2  0
 20 21  1  0
 20 39  1  0
 21 22  2  0
 21 40  1  0
 22 23  1  0
 22 41  1  0
 23 24  2  0
 23 42  1  0
 24 19  1  0
 24 43  1  0
 25 26  1  0
 26 44  1  0
 26 45  1  0
 26 46  1  0
M  END
> <Name>
CHEMBL2312700

> <Clean Energy>
21.571199

> <chembl_id>
CHEMBL2312700

> <chembl_pref_name>
None

> <efficacy>
0.21

> <Forcefield>
MMFF

> <ForcefieldBase>
MMFF

> <ForcefieldFFML>
<?xml version="1.0" encoding="UTF-8"?>
<!DOCTYPE ffml SYSTEM "Ffml.dtd">
<ffml version="1.0">
<forcefield name="MMFF" derivedFrom="MMFF" base="MMFF">
<atomTypes>
<atomType
name="C100"
element="C"
mass="12.011"
annotation=""/>
<atomType
name="O101"
element="O"
mass="16"
annotation=""/>
<atomType
name="H102"
element="H"
mass="1.008"
annotation=""/>
</atomTypes>
<parameters>
</parameters>
</forcefield>
</ffml>

> <Initial Potential Energy>
189.1077

> <Initial RMS Gradient>
32.62016

> <Minimization Criteria>
STEEPD> Minimization exiting with gradient tolerance ( 3.0000000) satisfied.

> <CHARMm Energy>
86.77401

> <Potential Energy>
86.77401

> <RMS Gradient>
0.02507

> <Bond Energy>
7.6731

> <Angle Energy>
16.34924

> <STRBend>
0.21205

> <Dihedral Energy>
7.80541

> <OOPLane>
0.01053

> <Van der Waals Energy>
58.34637

> <Electrostatic Energy>
-3.62269

> <Hydrogen Bond Energy>
0

> <Solvation Free Energy>
0

> <HasGasteigerCharges>
true

> <REMARK99>
REMARK  99  MacroMolecule created from Mol2 file
REMARK  99  CHEMBL2312700
REMARK  99  PROTEIN
REMARK  99  GASTEIGER
REMARK  99
REMARK  99

$$$$
CHEMBL3397558
  SciTegic05292516403D

 51 53  0  0  0  0            999 V2000
    0.7495   -3.5741    1.6594 C   0  0
    1.7024   -3.2231    0.4854 C   0  0  1  0  0  0
    2.1843   -1.7827    0.7495 C   0  0
    1.2745   -3.7511    2.7963 O   0  0
   -0.4757   -3.6437    1.3353 O   0  5
    1.5288   -0.7237   -0.1178 C   0  0
    2.2789   -0.0190   -1.0710 C   0  0
    1.6886    0.9890   -1.8361 C   0  0
    0.3402    1.2953   -1.6608 C   0  0
   -0.4176    0.5973   -0.7221 C   0  0
    0.1736   -0.4074    0.0462 C   0  0
    2.8850   -4.0657    0.4668 O   0  0
    2.7520   -5.4136    0.2873 C   0  0
    3.9340   -6.1310    0.4977 C   0  0
    3.9588   -7.5227    0.3881 C   0  0
    2.7899   -8.2132    0.0594 C   0  0
    1.6080   -7.5078   -0.1744 C   0  0
    1.5925   -6.1058   -0.0639 C   0  0
    2.8538   -9.6871    0.0037 C   0  0
    1.8450  -10.4501   -0.2852 N   0  0
    2.2616  -11.7894   -0.2042 O   0  0
    1.1278  -12.6406   -0.3954 C   0  0
    1.5074  -14.0382    0.0841 C   0  0
    0.4102  -15.0598   -0.0943 C   0  0
    0.5396  -16.0970   -1.0260 C   0  0
   -0.4822  -17.0359   -1.1836 C   0  0
   -1.6397  -16.9476   -0.4120 C   0  0
   -1.7785  -15.9199    0.5183 C   0  0
   -0.7587  -14.9811    0.6768 C   0  0
    1.2041   -3.3001   -0.4887 H   0  0
    2.0396   -1.4798    1.7951 H   0  0
    3.2705   -1.7293    0.5938 H   0  0
    3.3283   -0.2634   -1.2175 H   0  0
    2.2780    1.5367   -2.5663 H   0  0
   -0.1217    2.0787   -2.2547 H   0  0
   -1.4702    0.8299   -0.5841 H   0  0
   -0.4278   -0.9529    0.7742 H   0  0
    4.8352   -5.5941    0.7807 H   0  0
    4.8864   -8.0527    0.5832 H   0  0
    0.6885   -8.0332   -0.4182 H   0  0
    0.6514   -5.5880   -0.2290 H   0  0
    3.8350  -10.1374    0.2399 H   0  0
    0.2732  -12.2557    0.1743 H   0  0
    0.8658  -12.6473   -1.4596 H   0  0
    2.4161  -14.3644   -0.4387 H   0  0
    1.7937  -14.0026    1.1436 H   0  0
    1.4357  -16.1862   -1.6360 H   0  0
   -0.3742  -17.8363   -1.9106 H   0  0
   -2.4341  -17.6784   -0.5375 H   0  0
   -2.6815  -15.8473    1.1185 H   0  0
   -0.8809  -14.1718    1.3984 H   0  0
  1  2  1  0
  1  4  2  0
  1  5  1  0
  2  3  1  0
  2 12  1  0
  2 30  1  0
  3  6  1  0
  3 31  1  0
  3 32  1  0
  6  7  1  0
  6 11  2  0
  7  8  2  0
  7 33  1  0
  8  9  1  0
  8 34  1  0
  9 10  2  0
  9 35  1  0
 10 11  1  0
 10 36  1  0
 11 37  1  0
 12 13  1  0
 13 14  1  0
 13 18  2  0
 14 15  2  0
 14 38  1  0
 15 16  1  0
 15 39  1  0
 16 17  2  0
 16 19  1  0
 17 18  1  0
 17 40  1  0
 18 41  1  0
 19 20  2  0
 19 42  1  0
 20 21  1  0
 21 22  1  0
 22 23  1  0
 22 43  1  0
 22 44  1  0
 23 24  1  0
 23 45  1  0
 23 46  1  0
 24 25  1  0
 24 29  2  0
 25 26  2  0
 25 47  1  0
 26 27  1  0
 26 48  1  0
 27 28  2  0
 27 49  1  0
 28 29  1  0
 28 50  1  0
 29 51  1  0
M  CHG  1   5  -1
M  END
> <Name>
CHEMBL3397558

> <Clean Energy>
11.9187

> <chembl_id>
CHEMBL3397558

> <chembl_pref_name>
None

> <efficacy>
0.26

> <Forcefield>
MMFF

> <ForcefieldBase>
MMFF

> <ForcefieldFFML>
<?xml version="1.0" encoding="UTF-8"?>
<!DOCTYPE ffml SYSTEM "Ffml.dtd">
<ffml version="1.0">
<forcefield name="MMFF" derivedFrom="MMFF" base="MMFF">
<atomTypes>
<atomType
name="C100"
element="C"
mass="12.011"
annotation=""/>
<atomType
name="O101"
element="O"
mass="16"
annotation=""/>
<atomType
name="N102"
element="N"
mass="14.007"
annotation=""/>
<atomType
name="H103"
element="H"
mass="1.008"
annotation=""/>
</atomTypes>
<parameters>
</parameters>
</forcefield>
</ffml>

> <Initial Potential Energy>
209.06139

> <Initial RMS Gradient>
32.99895

> <Minimization Criteria>
CONJUG> Minimization exiting with gradient tolerance ( 0.0100000) satisfied.

> <CHARMm Energy>
131.10468

> <Potential Energy>
131.10468

> <RMS Gradient>
0.00959

> <Bond Energy>
6.14594

> <Angle Energy>
14.01716

> <STRBend>
0.85386

> <Dihedral Energy>
3.92454

> <OOPLane>
0.02064

> <Van der Waals Energy>
57.4189

> <Electrostatic Energy>
48.72364

> <Hydrogen Bond Energy>
0

> <Solvation Free Energy>
0

> <HasGasteigerCharges>
true

> <REMARK99>
REMARK  99  MacroMolecule created from Mol2 file
REMARK  99  CHEMBL3397558
REMARK  99  PROTEIN
REMARK  99  GASTEIGER
REMARK  99
REMARK  99

$$$$
CHEMBL2042813
  SciTegic05292516403D

 62 66  0  0  0  0            999 V2000
   -2.0454  -20.7054   -1.2990 O   0  0
   -3.1592  -19.8639   -1.2364 C   0  0
   -2.8317  -18.5743   -0.5364 C   0  0  2  0  0  0
   -1.5711  -18.9966    0.1674 C   0  0
   -1.0967  -20.1946   -0.4210 C   0  0
    0.1552  -20.7409   -0.1130 C   0  0
    0.9175  -20.0276    0.8403 C   0  0
    0.4130  -18.8803    1.4833 C   0  0
   -0.8268  -18.3619    1.1380 C   0  0
   -1.2270  -17.2324    1.7729 O   0  0
    2.1736  -20.4553    1.2153 O   0  0
    3.1757  -19.5424    0.7544 C   0  0
    0.6853  -21.9625   -0.8235 C   0  0
    1.8193  -22.5389   -0.2891 N   0  0
    2.5769  -23.6189   -0.8916 C   0  0
    3.9519  -23.6547   -0.2502 C   0  0
    4.9722  -22.7494   -0.6899 C   0  0
    6.1895  -22.6897    0.0330 C   0  0
    6.3828  -23.5206    1.1395 C   0  0
    5.3955  -24.4106    1.5528 C   0  0
    4.1724  -24.4806    0.8813 C   0  0
    3.1165  -25.4179    1.4068 C   0  0
    7.2032  -21.7932   -0.3474 C   0  0
    7.0448  -20.9538   -1.4461 C   0  0
    5.8641  -21.0054   -2.1627 C   0  0
    4.8429  -21.8792   -1.7993 C   0  0
    5.7002  -20.2056   -3.2247 F   0  0
    0.1491  -22.3933   -1.8368 O   0  0
   -4.0291  -18.1491    0.3150 C   0  0
   -5.4061  -18.3681   -0.2649 C   0  0
   -5.5237  -19.3508   -1.1884 C   0  0
   -4.4131  -20.2173   -1.5533 C   0  0
   -6.6997  -19.6931   -1.8261 O   0  0
   -6.6094  -17.5485    0.1105 C   0  0
   -6.4591  -16.4165    1.0908 C   0  0
   -7.7079  -17.7991   -0.3959 O   0  0
   -3.8896  -17.5491    1.3839 O   0  0
   -2.5175  -17.4507   -1.5381 C   0  0
    0.9991  -18.3809    2.2516 H   0  0
   -2.2081  -17.1966    1.7884 H   0  0
    4.1490  -20.0217    0.8918 H   0  0
    3.1727  -18.6209    1.3449 H   0  0
    3.0535  -19.3182   -0.3113 H   0  0
    2.1666  -22.1526    0.5832 H   0  0
    2.0167  -24.5461   -0.7403 H   0  0
    2.6245  -23.4849   -1.9767 H   0  0
    7.3180  -23.4892    1.6964 H   0  0
    5.5939  -25.0447    2.4161 H   0  0
    3.4573  -25.9453    2.3045 H   0  0
    2.8744  -26.1766    0.6559 H   0  0
    2.2132  -24.8633    1.6795 H   0  0
    8.1392  -21.7532    0.2077 H   0  0
    7.8415  -20.2810   -1.7499 H   0  0
    3.9420  -21.8577   -2.4057 H   0  0
   -4.6245  -21.1835   -2.0010 H   0  0
   -7.4404  -19.1077   -1.5243 H   0  0
   -5.6557  -15.7442    0.7793 H   0  0
   -6.2783  -16.8114    2.0933 H   0  0
   -7.3863  -15.8351    1.1125 H   0  0
   -2.2059  -16.5375   -1.0165 H   0  0
   -3.3928  -17.1899   -2.1449 H   0  0
   -1.7101  -17.7263   -2.2278 H   0  0
  1  2  1  0
  2  3  1  0
  2 32  2  0
  3  4  1  0
  3 29  1  0
  3 38  1  0
  4  5  2  0
  4  9  1  0
  5  1  1  0
  5  6  1  0
  6  7  2  0
  6 13  1  0
  7  8  1  0
  7 11  1  0
  8  9  2  0
  8 39  1  0
  9 10  1  0
 10 40  1  0
 11 12  1  0
 12 41  1  0
 12 42  1  0
 12 43  1  0
 13 14  1  0
 13 28  2  0
 14 15  1  0
 14 44  1  0
 15 16  1  0
 15 45  1  0
 15 46  1  0
 16 21  1  0
 17 16  2  0
 17 26  1  0
 18 17  1  0
 18 23  1  0
 19 18  2  0
 19 47  1  0
 20 19  1  0
 20 21  2  0
 20 48  1  0
 21 22  1  0
 22 49  1  0
 22 50  1  0
 22 51  1  0
 23 24  2  0
 23 52  1  0
 24 25  1  0
 24 53  1  0
 25 26  2  0
 25 27  1  0
 26 54  1  0
 29 30  1  0
 29 37  2  0
 30 31  2  0
 30 34  1  0
 31 32  1  0
 31 33  1  0
 32 55  1  0
 33 56  1  0
 34 35  1  0
 34 36  2  0
 35 57  1  0
 35 58  1  0
 35 59  1  0
 38 60  1  0
 38 61  1  0
 38 62  1  0
M  END
> <Name>
CHEMBL2042813

> <Clean Energy>
65.086899

> <chembl_id>
CHEMBL2042813

> <chembl_pref_name>
None

> <efficacy>
0.377358491

> <Forcefield>
MMFF

> <ForcefieldBase>
MMFF

> <ForcefieldFFML>
<?xml version="1.0" encoding="UTF-8"?>
<!DOCTYPE ffml SYSTEM "Ffml.dtd">
<ffml version="1.0">
<forcefield name="MMFF" derivedFrom="MMFF" base="MMFF">
<atomTypes>
<atomType
name="O100"
element="O"
mass="16"
annotation=""/>
<atomType
name="C101"
element="C"
mass="12.011"
annotation=""/>
<atomType
name="N102"
element="N"
mass="14.007"
annotation=""/>
<atomType
name="F103"
element="F"
mass="18.998"
annotation=""/>
<atomType
name="H104"
element="H"
mass="1.008"
annotation=""/>
</atomTypes>
<parameters>
</parameters>
</forcefield>
</ffml>

> <Initial Potential Energy>
237.58647

> <Initial RMS Gradient>
46.96783

> <Minimization Criteria>
STEEPD> Minimization exiting with gradient tolerance ( 3.0000000) satisfied.

> <CHARMm Energy>
56.85727

> <Potential Energy>
56.85727

> <RMS Gradient>
0.07574

> <Bond Energy>
11.48773

> <Angle Energy>
26.8237

> <STRBend>
0.52003

> <Dihedral Energy>
13.76858

> <OOPLane>
0.61613

> <Van der Waals Energy>
79.90714

> <Electrostatic Energy>
-76.26605

> <Hydrogen Bond Energy>
0

> <Solvation Free Energy>
0

> <HasGasteigerCharges>
true

> <REMARK99>
REMARK  99  MacroMolecule created from Mol2 file
REMARK  99  CHEMBL2042813
REMARK  99  PROTEIN
REMARK  99  GASTEIGER
REMARK  99
REMARK  99

$$$$
CHEMBL4277723
  SciTegic05292516403D

 66 71  0  0  0  0            999 V2000
   30.8976   -4.1260   -1.9795 C   0  0
   32.1340   -3.4098   -1.9581 O   0  0
   32.1063   -5.8859   -0.1713 C   0  0
   30.9422   -5.1123    0.3249 C   0  0
   30.3084   -4.2704   -0.5992 C   0  0
   29.1532   -3.5803   -0.2197 C   0  0
   28.6367   -3.6989    1.0820 C   0  0
   29.3012   -4.5232    2.0022 C   0  0
   30.4549   -5.2161    1.6312 C   0  0
   33.2525   -4.0091   -1.4351 C   0  0
   33.3211   -5.1585   -0.6234 C   0  0
   34.5798   -5.5776   -0.1429 C   0  0
   35.7440   -4.8884   -0.4796 C   0  0
   35.6672   -3.7569   -1.2813 C   0  0
   34.4292   -3.3179   -1.7485 C   0  0
   31.9708   -7.2165   -0.3972 C   0  0
   30.7182   -7.8947   -0.0076 C   0  0
   32.9321   -8.1239   -1.1094 C   0  0
   27.3744   -2.9726    1.4909 C   0  0
   27.4062   -1.5723    1.0961 N   0  0
   29.5532   -7.7949   -0.5437 N   0  0
   28.7215   -8.6576    0.2450 O   0  0
   29.5382   -9.1942    1.2094 C   0  0
   30.7671   -8.6870    1.0580 N   0  0
   29.2183  -10.0219    2.0490 O   0  0
   27.0683    0.2659   -0.0941 N   0  0
   26.6870   -0.9851    0.0742 C   0  0
   27.9966    0.5156    0.8858 C   0  0
   28.2214   -0.6150    1.6589 C   0  0
   29.1317   -0.6395    2.7215 C   0  0
   29.8276    0.5417    2.9874 C   0  0
   29.6176    1.6871    2.2195 C   0  0
   28.6918    1.7077    1.1563 C   0  0
   25.6448   -1.7024   -0.7285 C   0  0
   24.9758   -0.8001   -1.7662 C   0  0
   23.9206   -1.5544   -2.5603 C   0  0
   28.4960    2.9329    0.3145 C   0  0
   28.4559    4.1107    1.1200 O   0  0
   30.2151   -3.5440   -2.6100 H   0  0
   31.0091   -5.0925   -2.4880 H   0  0
   28.6647   -2.9348   -0.9474 H   0  0
   28.9252   -4.6324    3.0174 H   0  0
   30.9567   -5.8459    2.3605 H   0  0
   34.6656   -6.4405    0.5151 H   0  0
   36.7057   -5.2244   -0.1016 H   0  0
   36.5642   -3.1996   -1.5293 H   0  0
   34.3747   -2.4214   -2.3614 H   0  0
   32.3926   -8.8732   -1.7003 H   0  0
   33.5616   -8.6535   -0.3874 H   0  0
   33.5754   -7.5893   -1.8140 H   0  0
   26.5053   -3.4619    1.0417 H   0  0
   27.2352   -2.9885    2.5783 H   0  0
   31.5434   -8.8815    1.6603 H   0  0
   29.3081   -1.5318    3.3111 H   0  0
   30.5478    0.5621    3.8019 H   0  0
   30.1707    2.5952    2.4549 H   0  0
   26.1080   -2.5566   -1.2366 H   0  0
   24.8798   -2.0961   -0.0483 H   0  0
   24.5063    0.0593   -1.2719 H   0  0
   25.7266   -0.4003   -2.4586 H   0  0
   23.4526   -0.8912   -3.2946 H   0  0
   23.1350   -1.9394   -1.9022 H   0  0
   24.3626   -2.3992   -3.0985 H   0  0
   29.3251    3.0249   -0.3950 H   0  0
   27.5567    2.8801   -0.2454 H   0  0
   28.2768    4.8439    0.5088 H   0  0
  1  2  1  0
  1  5  1  0
  1 39  1  0
  1 40  1  0
  2 10  1  0
  3 16  2  0
  4  3  1  0
  4  5  2  0
  5  6  1  0
  6  7  2  0
  6 41  1  0
  7  8  1  0
  7 19  1  0
  8  9  2  0
  8 42  1  0
  9  4  1  0
  9 43  1  0
 10 11  2  0
 11  3  1  0
 11 12  1  0
 12 13  2  0
 12 44  1  0
 13 14  1  0
 13 45  1  0
 14 15  2  0
 14 46  1  0
 15 10  1  0
 15 47  1  0
 16 17  1  0
 16 18  1  0
 17 21  2  0
 18 48  1  0
 18 49  1  0
 18 50  1  0
 19 20  1  0
 19 51  1  0
 19 52  1  0
 20 29  1  0
 21 22  1  0
 22 23  1  0
 23 24  1  0
 23 25  2  0
 24 17  1  0
 24 53  1  0
 26 27  2  0
 27 20  1  0
 27 34  1  0
 28 26  1  0
 28 29  2  0
 29 30  1  0
 30 31  2  0
 30 54  1  0
 31 32  1  0
 31 55  1  0
 32 33  2  0
 32 56  1  0
 33 28  1  0
 33 37  1  0
 34 35  1  0
 34 57  1  0
 34 58  1  0
 35 36  1  0
 35 59  1  0
 35 60  1  0
 36 61  1  0
 36 62  1  0
 36 63  1  0
 37 38  1  0
 37 64  1  0
 37 65  1  0
 38 66  1  0
M  END
> <Name>
CHEMBL4277723

> <Clean Energy>
120.927002

> <chembl_id>
CHEMBL4277723

> <chembl_pref_name>
None

> <efficacy>
0.086419753

> <Forcefield>
MMFF

> <ForcefieldBase>
MMFF

> <ForcefieldFFML>
<?xml version="1.0" encoding="UTF-8"?>
<!DOCTYPE ffml SYSTEM "Ffml.dtd">
<ffml version="1.0">
<forcefield name="MMFF" derivedFrom="MMFF" base="MMFF">
<atomTypes>
<atomType
name="C100"
element="C"
mass="12.011"
annotation=""/>
<atomType
name="O101"
element="O"
mass="16"
annotation=""/>
<atomType
name="N102"
element="N"
mass="14.007"
annotation=""/>
<atomType
name="H103"
element="H"
mass="1.008"
annotation=""/>
</atomTypes>
<parameters>
</parameters>
</forcefield>
</ffml>

> <Initial Potential Energy>
595.10408

> <Initial RMS Gradient>
154.13051

> <Minimization Criteria>
STEEPD> Minimization exiting with gradient tolerance ( 3.0000000) satisfied.

> <CHARMm Energy>
76.43773

> <Potential Energy>
76.43773

> <RMS Gradient>
0.06486

> <Bond Energy>
9.29367

> <Angle Energy>
23.37218

> <STRBend>
-0.83039

> <Dihedral Energy>
16.87817

> <OOPLane>
0.24985

> <Van der Waals Energy>
69.86235

> <Electrostatic Energy>
-42.38809

> <Hydrogen Bond Energy>
0

> <Solvation Free Energy>
0

> <HasGasteigerCharges>
true

> <REMARK99>
REMARK  99  MacroMolecule created from Mol2 file
REMARK  99  CHEMBL4277723
REMARK  99  PROTEIN
REMARK  99  GASTEIGER
REMARK  99
REMARK  99

$$$$
CHEMBL5074222
  SciTegic05292516403D

 55 58  0  0  0  0            999 V2000
   -1.7151   -2.8188   -1.4879 O   0  0
   -1.6482   -3.4762   -0.1954 S   0  0
   -2.6019   -4.5277    0.1264 O   0  0
    1.5410   -2.5851   -1.2074 C   0  0
    1.0619   -3.0799    0.0134 C   0  0
    1.6323   -2.5915    1.2001 C   0  0
    2.6556   -1.6345    1.1651 C   0  0
    3.1333   -1.1436   -0.0574 C   0  0
    2.5649   -1.6374   -1.2331 C   0  0
    4.2871   -0.1770   -0.1109 C   0  0
    5.5399   -0.8932   -0.1560 N   0  0
    6.7613   -0.2643   -0.0863 C   0  0
    7.9330   -1.1707   -0.1919 C   0  0
    6.9350    0.9367    0.0870 O   0  0
    7.9334   -2.2531   -1.0771 C   0  0
    9.0157   -3.1346   -1.1334 C   0  0
    9.0456   -0.9112    0.6185 C   0  0
   10.1418   -1.7936    0.5809 C   0  0
   10.1020   -2.8955   -0.2783 C   0  0
   11.2758   -3.5997   -0.0781 N   0  0
   12.0675   -2.9466    0.8347 C   0  0
   11.3850   -1.8335    1.2660 C   0  0
   11.6362   -4.8567   -0.7287 C   0  0
   10.8215   -6.0168   -0.2046 C   0  0
   10.8524   -6.3645    1.1570 C   0  0
   10.1053   -7.4421    1.6394 C   0  0
    9.3136   -8.1830    0.7668 C   0  0
    9.2780   -7.8421   -0.5793 C   0  0
   10.0297   -6.7803   -1.0743 C   0  0
    8.4845   -8.5302   -1.4112 F   0  0
   -0.0036   -4.1479    0.0500 C   0  0
   -1.8231   -2.2265    1.0576 C   0  0
    3.0404   -1.2342   -2.4194 F   0  0
    1.1358   -2.9364   -2.1544 H   0  0
    1.2924   -2.9570    2.1692 H   0  0
    3.0911   -1.2845    2.0999 H   0  0
    4.2240    0.4689   -0.9941 H   0  0
    4.2857    0.4808    0.7662 H   0  0
    5.5049   -1.9008   -0.2292 H   0  0
    7.0916   -2.4201   -1.7456 H   0  0
    9.0082   -3.9725   -1.8227 H   0  0
    9.0696   -0.0444    1.2747 H   0  0
   13.0381   -3.3311    1.1157 H   0  0
   11.7372   -1.1204    1.9995 H   0  0
   11.4956   -4.7103   -1.8057 H   0  0
   12.7025   -5.0439   -0.5580 H   0  0
   11.4594   -5.7918    1.8568 H   0  0
   10.1432   -7.6988    2.6952 H   0  0
    8.7280   -9.0216    1.1274 H   0  0
    9.9829   -6.5578   -2.1364 H   0  0
    0.1669   -4.8909   -0.7364 H   0  0
   -0.0051   -4.6738    1.0105 H   0  0
   -1.6138   -2.6719    2.0317 H   0  0
   -2.8532   -1.8645    1.0309 H   0  0
   -1.1419   -1.4012    0.8476 H   0  0
  2  1  2  0
  2 32  1  0
  3  2  2  0
  4  5  2  0
  4 34  1  0
  5  6  1  0
  5 31  1  0
  6  7  2  0
  6 35  1  0
  7  8  1  0
  7 36  1  0
  8  9  2  0
  8 10  1  0
  9  4  1  0
  9 33  1  0
 10 11  1  0
 10 37  1  0
 10 38  1  0
 11 12  1  0
 11 39  1  0
 12 13  1  0
 12 14  2  0
 13 15  2  0
 15 16  1  0
 15 40  1  0
 16 19  2  0
 16 41  1  0
 17 13  1  0
 17 42  1  0
 18 17  2  0
 18 19  1  0
 19 20  1  0
 20 21  1  0
 20 23  1  0
 21 22  2  0
 21 43  1  0
 22 18  1  0
 22 44  1  0
 23 24  1  0
 23 45  1  0
 23 46  1  0
 24 25  2  0
 25 26  1  0
 25 47  1  0
 26 27  2  0
 26 48  1  0
 27 28  1  0
 27 49  1  0
 28 29  2  0
 28 30  1  0
 29 24  1  0
 29 50  1  0
 31  2  1  0
 31 51  1  0
 31 52  1  0
 32 53  1  0
 32 54  1  0
 32 55  1  0
M  END
> <Name>
CHEMBL5074222

> <Clean Energy>
35.971699

> <chembl_id>
CHEMBL5074222

> <chembl_pref_name>
None

> <efficacy>
0.341880342

> <Forcefield>
MMFF

> <ForcefieldBase>
MMFF

> <ForcefieldFFML>
<?xml version="1.0" encoding="UTF-8"?>
<!DOCTYPE ffml SYSTEM "Ffml.dtd">
<ffml version="1.0">
<forcefield name="MMFF" derivedFrom="MMFF" base="MMFF">
<atomTypes>
<atomType
name="O100"
element="O"
mass="16"
annotation=""/>
<atomType
name="S101"
element="S"
mass="32.066"
annotation=""/>
<atomType
name="C102"
element="C"
mass="12.011"
annotation=""/>
<atomType
name="N103"
element="N"
mass="14.007"
annotation=""/>
<atomType
name="F104"
element="F"
mass="18.998"
annotation=""/>
<atomType
name="H105"
element="H"
mass="1.008"
annotation=""/>
</atomTypes>
<parameters>
</parameters>
</forcefield>
</ffml>

> <Initial Potential Energy>
478.38709

> <Initial RMS Gradient>
210.24942

> <Minimization Criteria>
STEEPD> Minimization exiting with gradient tolerance ( 3.0000000) satisfied.

> <CHARMm Energy>
68.67029

> <Potential Energy>
68.67029

> <RMS Gradient>
0.06378

> <Bond Energy>
5.81557

> <Angle Energy>
6.57913

> <STRBend>
0.52761

> <Dihedral Energy>
6.52492

> <OOPLane>
0.08324

> <Van der Waals Energy>
53.13544

> <Electrostatic Energy>
-3.99562

> <Hydrogen Bond Energy>
0

> <Solvation Free Energy>
0

> <HasGasteigerCharges>
true

> <REMARK99>
REMARK  99  MacroMolecule created from Mol2 file
REMARK  99  CHEMBL5074222
REMARK  99  PROTEIN
REMARK  99  GASTEIGER
REMARK  99
REMARK  99

$$$$
CHEMBL5204992
  SciTegic05292516403D

 54 55  0  0  0  0            999 V2000
    6.7302   -2.6716   -0.1521 C   0  0
    7.5771   -2.7069   -1.4289 C   0  0
    7.5966   -2.5331    1.1045 C   0  0
    5.9272   -3.9771   -0.0564 C   0  0
    5.7288   -1.6230   -0.2164 O   0  0
    6.0882   -0.3285   -0.2963 C   0  0
    7.2165    0.1366   -0.3580 O   0  0
    4.9772    0.4438   -0.3495 N   0  0
    4.9423    1.8904   -0.0951 C   0  0  1  0  0  0
    5.6107    2.7803   -1.1617 C   0  0
    6.6411    2.2280   -1.8357 O   0  0
    5.3196    3.9595   -1.3362 O   0  0
    3.4959    2.4004    0.0666 C   0  0
    2.5124    1.3834    1.2292 S   0  0
    1.0332    2.4443    1.3716 C   0  0
   -0.2382    1.6594    1.1655 C   0  0
   -0.6189    0.6632    2.0781 C   0  0
   -1.7821   -0.0792    1.8741 C   0  0
   -2.5962    0.1867    0.7703 C   0  0
   -2.2314    1.1800   -0.1442 C   0  0
   -1.0565    1.9104    0.0538 C   0  0
   -3.8093   -0.6403    0.5736 C   0  0
   -3.8171   -1.8194    0.9202 O   0  0
   -5.0396   -0.0739   -0.0319 C   0  0
   -5.7406   -0.8527   -0.9597 C   0  0
   -6.9080   -0.3584   -1.5416 C   0  0
   -7.3886    0.8986   -1.1757 C   0  0
   -6.7066    1.6697   -0.2334 C   0  0
   -5.5287    1.1846    0.3426 C   0  0
   -8.8337    1.5025   -1.8856 Cl  0  0
    6.9381   -2.7200   -2.3190 H   0  0
    8.2257   -3.5893   -1.4525 H   0  0
    8.2194   -1.8255   -1.5172 H   0  0
    6.9712   -2.4237    1.9977 H   0  0
    8.2390   -1.6482    1.0615 H   0  0
    8.2465   -3.4045    1.2387 H   0  0
    5.2791   -3.9720    0.8278 H   0  0
    6.5809   -4.8539   -0.0011 H   0  0
    5.2659   -4.0923   -0.9233 H   0  0
    4.1098   -0.0707   -0.2366 H   0  0
    5.5021    2.0577    0.8342 H   0  0
    6.9651    1.3864   -1.4391 H   0  0
    3.5053    3.4335    0.4317 H   0  0
    2.9798    2.3854   -0.9005 H   0  0
    1.0216    2.8962    2.3696 H   0  0
    1.0896    3.2676    0.6514 H   0  0
    0.0028    0.4435    2.9444 H   0  0
   -2.0471   -0.8683    2.5745 H   0  0
   -2.8322    1.3795   -1.0279 H   0  0
   -0.7793    2.6704   -0.6744 H   0  0
   -5.3759   -1.8431   -1.2279 H   0  0
   -7.4440   -0.9641   -2.2671 H   0  0
   -7.1020    2.6389    0.0642 H   0  0
   -5.0217    1.7822    1.0958 H   0  0
  1  2  1  0
  1  3  1  0
  1  4  1  0
  1  5  1  0
  2 31  1  0
  2 32  1  0
  2 33  1  0
  3 34  1  0
  3 35  1  0
  3 36  1  0
  4 37  1  0
  4 38  1  0
  4 39  1  0
  5  6  1  0
  6  7  2  0
  6  8  1  0
  8  9  1  0
  8 40  1  0
  9 10  1  0
  9 13  1  0
  9 41  1  0
 10 11  1  0
 10 12  2  0
 11 42  1  0
 13 14  1  0
 13 43  1  0
 13 44  1  0
 14 15  1  0
 15 16  1  0
 15 45  1  0
 15 46  1  0
 16 17  1  0
 16 21  2  0
 17 18  2  0
 17 47  1  0
 18 19  1  0
 18 48  1  0
 19 20  2  0
 19 22  1  0
 20 21  1  0
 20 49  1  0
 21 50  1  0
 22 23  2  0
 22 24  1  0
 24 25  1  0
 24 29  2  0
 25 26  2  0
 25 51  1  0
 26 27  1  0
 26 52  1  0
 27 28  2  0
 27 30  1  0
 28 29  1  0
 28 53  1  0
 29 54  1  0
M  END
> <Name>
CHEMBL5204992

> <Clean Energy>
17.808599

> <chembl_id>
CHEMBL5204992

> <chembl_pref_name>
None

> <efficacy>
0.1

> <Forcefield>
MMFF

> <ForcefieldBase>
MMFF

> <ForcefieldFFML>
<?xml version="1.0" encoding="UTF-8"?>
<!DOCTYPE ffml SYSTEM "Ffml.dtd">
<ffml version="1.0">
<forcefield name="MMFF" derivedFrom="MMFF" base="MMFF">
<atomTypes>
<atomType
name="C100"
element="C"
mass="12.011"
annotation=""/>
<atomType
name="O101"
element="O"
mass="16"
annotation=""/>
<atomType
name="N102"
element="N"
mass="14.007"
annotation=""/>
<atomType
name="S103"
element="S"
mass="32.066"
annotation=""/>
<atomType
name="Cl104"
element="Cl"
mass="35.453"
annotation=""/>
<atomType
name="H105"
element="H"
mass="1.008"
annotation=""/>
</atomTypes>
<parameters>
</parameters>
</forcefield>
</ffml>

> <Initial Potential Energy>
163.92104

> <Initial RMS Gradient>
33.92189

> <Minimization Criteria>
CONJUG> Minimization exiting with gradient tolerance ( 0.0100000) satisfied.

> <CHARMm Energy>
29.83425

> <Potential Energy>
29.83425

> <RMS Gradient>
0.00947

> <Bond Energy>
6.12947

> <Angle Energy>
13.93872

> <STRBend>
1.12669

> <Dihedral Energy>
13.53027

> <OOPLane>
0.63565

> <Van der Waals Energy>
54.33731

> <Electrostatic Energy>
-59.86386

> <Hydrogen Bond Energy>
0

> <Solvation Free Energy>
0

> <HasGasteigerCharges>
true

> <REMARK99>
REMARK  99  MacroMolecule created from Mol2 file
REMARK  99  CHEMBL5204992
REMARK  99  PROTEIN
REMARK  99  GASTEIGER
REMARK  99
REMARK  99

$$$$
CHEMBL2312711
  SciTegic05292516403D

 48 50  0  0  0  0            999 V2000
   -2.0655   -7.3941    1.4066 C   0  0
   -2.5967   -8.6073    0.9797 C   0  0
   -1.8426   -9.4288    0.1475 C   0  0
   -0.5455   -9.0529   -0.2598 C   0  0
    0.0075   -7.8158    0.1648 C   0  0
   -0.7773   -6.9848    1.0064 C   0  0
    1.3579   -7.3902   -0.2761 C   0  0
    2.4905   -7.5711    0.5355 C   0  0
    3.7699   -7.1529    0.1202 C   0  0
    3.9410   -6.5481   -1.1216 C   0  0
    2.8194   -6.3697   -1.9390 C   0  0
    1.5450   -6.7806   -1.5232 C   0  0
    5.1114   -6.0919   -1.6623 O   0  0
    6.3523   -6.1725   -0.9169 C   0  0  2  0  0  0
    7.2321   -5.0256   -1.4582 C   0  0
    6.5591   -4.1921   -2.2958 O   0  0
    8.4089   -4.8350   -1.1849 O   0  0
    7.0274   -7.5253   -1.1883 C   0  0
    7.9952   -7.9582   -0.1106 C   0  0
    9.3615   -7.6563   -0.2152 C   0  0
   10.2586   -8.0486    0.7805 C   0  0
    9.8006   -8.7516    1.8917 C   0  0
    8.4461   -9.0619    2.0060 C   0  0
    7.5465   -8.6681    1.0113 C   0  0
    0.2176   -9.9842   -1.1674 C   0  0
   -0.2627   -5.6546    1.4967 C   0  0
   -2.6601   -6.7559    2.0555 H   0  0
   -3.5953   -8.9110    1.2922 H   0  0
   -2.2697  -10.3725   -0.1859 H   0  0
    2.3790   -8.0425    1.5110 H   0  0
    4.5990   -7.3203    0.7984 H   0  0
    2.9274   -5.9046   -2.9163 H   0  0
    0.6915   -6.6200   -2.1808 H   0  0
    6.1813   -5.9568    0.1436 H   0  0
    5.6412   -4.5161   -2.4189 H   0  0
    6.2693   -8.3116   -1.3007 H   0  0
    7.5453   -7.5066   -2.1569 H   0  0
    9.7381   -7.1022   -1.0732 H   0  0
   11.3143   -7.8021    0.6885 H   0  0
   10.4992   -9.0579    2.6665 H   0  0
    8.0899   -9.6150    2.8713 H   0  0
    6.4979   -8.9337    1.1168 H   0  0
    0.3269   -9.5402   -2.1617 H   0  0
   -0.3012  -10.9415   -1.2863 H   0  0
    1.2057  -10.2057   -0.7516 H   0  0
   -1.0277   -5.1131    2.0636 H   0  0
    0.0237   -5.0177    0.6537 H   0  0
    0.5963   -5.7994    2.1591 H   0  0
  1  2  2  0
  1 27  1  0
  2  3  1  0
  2 28  1  0
  3  4  2  0
  3 29  1  0
  4  5  1  0
  4 25  1  0
  5  6  2  0
  5  7  1  0
  6  1  1  0
  6 26  1  0
  7  8  2  0
  8  9  1  0
  8 30  1  0
  9 10  2  0
  9 31  1  0
 10 11  1  0
 10 13  1  0
 11 12  2  0
 11 32  1  0
 12  7  1  0
 12 33  1  0
 13 14  1  0
 14 15  1  0
 14 18  1  0
 14 34  1  0
 15 16  1  0
 15 17  2  0
 16 35  1  0
 18 19  1  0
 18 36  1  0
 18 37  1  0
 19 20  2  0
 20 21  1  0
 20 38  1  0
 21 22  2  0
 21 39  1  0
 22 23  1  0
 22 40  1  0
 23 24  2  0
 23 41  1  0
 24 19  1  0
 24 42  1  0
 25 43  1  0
 25 44  1  0
 25 45  1  0
 26 46  1  0
 26 47  1  0
 26 48  1  0
M  END
> <Name>
CHEMBL2312711

> <Clean Energy>
38.430401

> <chembl_id>
CHEMBL2312711

> <chembl_pref_name>
None

> <efficacy>
0.16

> <Forcefield>
MMFF

> <ForcefieldBase>
MMFF

> <ForcefieldFFML>
<?xml version="1.0" encoding="UTF-8"?>
<!DOCTYPE ffml SYSTEM "Ffml.dtd">
<ffml version="1.0">
<forcefield name="MMFF" derivedFrom="MMFF" base="MMFF">
<atomTypes>
<atomType
name="C100"
element="C"
mass="12.011"
annotation=""/>
<atomType
name="O101"
element="O"
mass="16"
annotation=""/>
<atomType
name="H102"
element="H"
mass="1.008"
annotation=""/>
</atomTypes>
<parameters>
</parameters>
</forcefield>
</ffml>

> <Initial Potential Energy>
219.99801

> <Initial RMS Gradient>
37.07551

> <Minimization Criteria>
CONJUG> Minimization exiting with gradient tolerance ( 0.0100000) satisfied.

> <CHARMm Energy>
81.7668

> <Potential Energy>
81.7668

> <RMS Gradient>
0.00897

> <Bond Energy>
8.53972

> <Angle Energy>
12.03692

> <STRBend>
-0.05437

> <Dihedral Energy>
7.35021

> <OOPLane>
0.00814

> <Van der Waals Energy>
56.76965

> <Electrostatic Energy>
-2.88347

> <Hydrogen Bond Energy>
0

> <Solvation Free Energy>
0

> <HasGasteigerCharges>
true

> <REMARK99>
REMARK  99  MacroMolecule created from Mol2 file
REMARK  99  CHEMBL2312711
REMARK  99  PROTEIN
REMARK  99  GASTEIGER
REMARK  99
REMARK  99

$$$$
CHEMBL4592451
  SciTegic05292516403D

 58 60  0  0  0  0            999 V2000
   16.0440  -18.4058    0.2129 C   0  0
   15.3023  -17.1028   -0.1161 C   0  0
   14.9852  -16.9037   -1.6048 C   0  0
    3.4503  -18.2330   -0.4468 C   0  0
    3.5155  -19.3632    0.3735 C   0  0
    4.7425  -19.9851    0.6147 C   0  0
    5.9124  -19.4841    0.0406 C   0  0
    5.8434  -18.3852   -0.8195 C   0  0
    4.6157  -17.7638   -1.0598 C   0  0
    2.2265  -17.5883   -0.6847 N   0  0
    1.9655  -16.8226    0.2698 N   0  0
    0.7415  -16.1620    0.0665 C   0  0
    0.7033  -14.7657    0.1318 C   0  0
   -0.5007  -14.0690   -0.0300 C   0  0
   -1.6883  -14.7669   -0.2513 C   0  0
   -1.6577  -16.1626   -0.3061 C   0  0
   -0.4553  -16.8560   -0.1432 C   0  0
    7.0603  -20.1487    0.3805 O   0  0
    8.2696  -19.3983    0.2172 C   0  0
    9.3704  -20.0433    1.0547 C   0  0
   10.6595  -19.2682    0.9530 C   0  0
   11.6462  -19.6404    0.0352 C   0  0
   12.8289  -18.8971   -0.0908 C   0  0
   13.0436  -17.7683    0.6934 C   0  0
   12.0530  -17.3961    1.6083 C   0  0
   10.8724  -18.1332    1.7402 C   0  0
   14.1229  -16.9392    0.6898 O   0  0
   16.2484  -15.9384    0.3146 C   0  0
   17.4111  -15.8623   -0.3929 O   0  0
   16.0339  -15.1360    1.2135 O   0  0
   -2.9278  -14.2157   -0.4246 O   0  0
   -3.0205  -12.7977   -0.3597 C   0  0
   15.5006  -19.2991   -0.0977 H   0  0
   16.1982  -18.4939    1.2950 H   0  0
   17.0263  -18.4568   -0.2679 H   0  0
   14.5712  -15.9024   -1.7744 H   0  0
   14.2423  -17.6068   -1.9843 H   0  0
   15.8726  -17.0088   -2.2367 H   0  0
    2.6105  -19.7473    0.8362 H   0  0
    4.7846  -20.8545    1.2666 H   0  0
    6.7258  -17.9907   -1.3141 H   0  0
    4.5544  -16.9037   -1.7218 H   0  0
    1.6257  -14.2175    0.3091 H   0  0
   -0.4761  -12.9859    0.0247 H   0  0
   -2.5798  -16.7149   -0.4732 H   0  0
   -0.4511  -17.9420   -0.1798 H   0  0
    8.5539  -19.3991   -0.8423 H   0  0
    8.1306  -18.3622    0.5538 H   0  0
    9.0564  -20.1086    2.1044 H   0  0
    9.5210  -21.0834    0.7387 H   0  0
   11.5051  -20.5159   -0.5961 H   0  0
   13.5430  -19.2411   -0.8262 H   0  0
   12.2040  -16.5148    2.2293 H   0  0
   10.1218  -17.8077    2.4577 H   0  0
   17.5174  -16.5466   -1.0769 H   0  0
   -4.0691  -12.5239   -0.5112 H   0  0
   -2.4344  -12.3275   -1.1562 H   0  0
   -2.7180  -12.4276    0.6254 H   0  0
  1 33  1  0
  1 34  1  0
  1 35  1  0
  2  1  1  0
  2 28  1  0
  3  2  1  0
  3 36  1  0
  3 37  1  0
  3 38  1  0
  4  5  2  0
  4 10  1  0
  5  6  1  0
  5 39  1  0
  6  7  2  0
  6 40  1  0
  7  8  1  0
  7 18  1  0
  8  9  2  0
  8 41  1  0
  9  4  1  0
  9 42  1  0
 10 11  2  0
 11 12  1  0
 12 13  2  0
 13 14  1  0
 13 43  1  0
 14 15  2  0
 14 44  1  0
 15 16  1  0
 15 31  1  0
 16 17  2  0
 16 45  1  0
 17 12  1  0
 17 46  1  0
 18 19  1  0
 19 20  1  0
 19 47  1  0
 19 48  1  0
 20 21  1  0
 20 49  1  0
 20 50  1  0
 21 22  2  0
 22 23  1  0
 22 51  1  0
 23 24  2  0
 23 52  1  0
 24 25  1  0
 24 27  1  0
 25 26  2  0
 25 53  1  0
 26 21  1  0
 26 54  1  0
 27  2  1  0
 28 29  1  0
 28 30  2  0
 29 55  1  0
 31 32  1  0
 32 56  1  0
 32 57  1  0
 32 58  1  0
M  END
> <Name>
CHEMBL4592451

> <Clean Energy>
20.108801

> <chembl_id>
CHEMBL4592451

> <chembl_pref_name>
None

> <efficacy>
0.1

> <Forcefield>
MMFF

> <ForcefieldBase>
MMFF

> <ForcefieldFFML>
<?xml version="1.0" encoding="UTF-8"?>
<!DOCTYPE ffml SYSTEM "Ffml.dtd">
<ffml version="1.0">
<forcefield name="MMFF" derivedFrom="MMFF" base="MMFF">
<atomTypes>
<atomType
name="C100"
element="C"
mass="12.011"
annotation=""/>
<atomType
name="N101"
element="N"
mass="14.007"
annotation=""/>
<atomType
name="O102"
element="O"
mass="16"
annotation=""/>
<atomType
name="H103"
element="H"
mass="1.008"
annotation=""/>
</atomTypes>
<parameters>
</parameters>
</forcefield>
</ffml>

> <Initial Potential Energy>
176.88009

> <Initial RMS Gradient>
29.3254

> <Minimization Criteria>
CONJUG> Minimization exiting with gradient tolerance ( 0.0100000) satisfied.

> <CHARMm Energy>
101.41282

> <Potential Energy>
101.41282

> <RMS Gradient>
0.00963

> <Bond Energy>
6.45705

> <Angle Energy>
28.9308

> <STRBend>
0.19809

> <Dihedral Energy>
6.46566

> <OOPLane>
0.03634

> <Van der Waals Energy>
68.93994

> <Electrostatic Energy>
-9.61505

> <Hydrogen Bond Energy>
0

> <Solvation Free Energy>
0

> <HasGasteigerCharges>
true

> <REMARK99>
REMARK  99  MacroMolecule created from Mol2 file
REMARK  99  CHEMBL4592451
REMARK  99  PROTEIN
REMARK  99  GASTEIGER
REMARK  99
REMARK  99

$$$$
CHEMBL3355872
  SciTegic05292516403D

 71 74  0  0  0  0            999 V2000
    7.3013  -13.4189    1.9705 C   0  0
    7.3701  -13.5627    0.4377 C   0  0  1  0  0  0
    8.6220  -14.3399   -0.0178 C   0  0
    8.0358  -14.0010    2.7564 O   0  0
    6.3040  -12.5968    2.3953 O   0  0
    9.9256  -13.5617   -0.0144 C   0  0
   10.2195  -12.6487   -1.0341 C   0  0
   11.4604  -11.9969   -1.0716 C   0  0
   12.4363  -12.2458   -0.1017 C   0  0
   12.1375  -13.1271    0.9359 C   0  0
   10.8921  -13.7765    0.9792 C   0  0
   13.6152  -11.5694   -0.2786 O   0  0
   14.7352  -11.9771    0.5148 C   0  0
   15.9865  -11.2264    0.0387 C   0  0
   17.1141  -11.6568    0.8046 O   0  0
   18.3185  -11.0783    0.5270 C   0  0
   18.5593  -10.1053   -0.4407 C   0  0
   19.8506   -9.5977   -0.6153 C   0  0
   20.9143  -10.0663    0.1634 C   0  0
   20.6642  -11.0334    1.1414 C   0  0
   19.3738  -11.5365    1.3174 C   0  0
   22.2480   -9.4951   -0.0414 C   0  0
   23.3607  -10.2428   -0.1032 C   0  0
   24.6977   -9.6805   -0.3246 C   0  0
   24.9239   -8.6328   -1.2267 C   0  0
   26.2145   -8.1398   -1.4323 C   0  0
   27.2931   -8.6963   -0.7473 C   0  0
   27.0795   -9.7500    0.1391 C   0  0
   25.7897  -10.2443    0.3448 C   0  0
    4.9531  -13.5492   -0.0960 C   0  0
    3.7730  -14.3882   -0.3963 C   0  0
    2.5492  -13.8420   -0.3246 C   0  0
    1.2980  -14.5925   -0.4979 C   0  0
    1.1548  -15.6227   -1.4356 C   0  0
   -0.0578  -16.3068   -1.5586 C   0  0
   -1.1418  -15.9596   -0.7550 C   0  0
   -1.0187  -14.9225    0.1663 C   0  0
    0.1935  -14.2399    0.2900 C   0  0
    4.9066  -12.3460    0.1420 O   0  0
    6.1295  -14.2434    0.0088 N   0  0
    7.3885  -12.5539    0.0069 H   0  0
    8.7403  -15.2539    0.5796 H   0  0
    8.4661  -14.6972   -1.0457 H   0  0
    5.7971  -12.2039    1.6432 H   0  0
    9.4958  -12.4511   -1.8224 H   0  0
   11.6732  -11.3009   -1.8802 H   0  0
   12.8484  -13.3353    1.7292 H   0  0
   10.6847  -14.4660    1.7973 H   0  0
   14.5570  -11.7440    1.5714 H   0  0
   14.9070  -13.0565    0.4184 H   0  0
   16.1441  -11.4369   -1.0266 H   0  0
   15.8216  -10.1490    0.1641 H   0  0
   17.7718   -9.7145   -1.0756 H   0  0
   20.0174   -8.8381   -1.3755 H   0  0
   21.4629  -11.3971    1.7819 H   0  0
   19.1839  -12.2869    2.0821 H   0  0
   22.2864   -8.4150   -0.1573 H   0  0
   23.3197  -11.3228    0.0147 H   0  0
   24.0994   -8.1978   -1.7866 H   0  0
   26.3773   -7.3243   -2.1318 H   0  0
   28.2984   -8.3143   -0.9084 H   0  0
   27.9151  -10.1922    0.6736 H   0  0
   25.6513  -11.0682    1.0406 H   0  0
    3.9261  -15.4371   -0.6128 H   0  0
    2.4384  -12.7889   -0.0692 H   0  0
    1.9784  -15.9030   -2.0863 H   0  0
   -0.1530  -17.1102   -2.2841 H   0  0
   -2.0827  -16.4949   -0.8477 H   0  0
   -1.8636  -14.6459    0.7920 H   0  0
    0.2749  -13.4363    1.0192 H   0  0
    6.1317  -15.2543   -0.0498 H   0  0
  1  2  1  0
  1  4  2  0
  1  5  1  0
  2  3  1  0
  2 40  1  0
  2 41  1  0
  3  6  1  0
  3 42  1  0
  3 43  1  0
  5 44  1  0
  6  7  1  0
  6 11  2  0
  7  8  2  0
  7 45  1  0
  8  9  1  0
  8 46  1  0
  9 10  2  0
  9 12  1  0
 10 11  1  0
 10 47  1  0
 11 48  1  0
 12 13  1  0
 13 14  1  0
 13 49  1  0
 13 50  1  0
 14 15  1  0
 14 51  1  0
 14 52  1  0
 15 16  1  0
 16 17  1  0
 16 21  2  0
 17 18  2  0
 17 53  1  0
 18 19  1  0
 18 54  1  0
 19 20  2  0
 19 22  1  0
 20 21  1  0
 20 55  1  0
 21 56  1  0
 22 23  2  0
 22 57  1  0
 23 24  1  0
 23 58  1  0
 24 25  1  0
 24 29  2  0
 25 26  2  0
 25 59  1  0
 26 27  1  0
 26 60  1  0
 27 28  2  0
 27 61  1  0
 28 29  1  0
 28 62  1  0
 29 63  1  0
 30 31  1  0
 30 39  2  0
 30 40  1  0
 31 32  2  0
 31 64  1  0
 32 33  1  0
 32 65  1  0
 33 34  1  0
 33 38  2  0
 34 35  2  0
 34 66  1  0
 35 36  1  0
 35 67  1  0
 36 37  2  0
 36 68  1  0
 37 38  1  0
 37 69  1  0
 38 70  1  0
 40 71  1  0
M  END
> <Name>
CHEMBL3355872

> <Clean Energy>
18.240299

> <chembl_id>
CHEMBL3355872

> <chembl_pref_name>
None

> <efficacy>
0.45

> <Forcefield>
MMFF

> <ForcefieldBase>
MMFF

> <ForcefieldFFML>
<?xml version="1.0" encoding="UTF-8"?>
<!DOCTYPE ffml SYSTEM "Ffml.dtd">
<ffml version="1.0">
<forcefield name="MMFF" derivedFrom="MMFF" base="MMFF">
<atomTypes>
<atomType
name="C100"
element="C"
mass="12.011"
annotation=""/>
<atomType
name="O101"
element="O"
mass="16"
annotation=""/>
<atomType
name="N102"
element="N"
mass="14.007"
annotation=""/>
<atomType
name="H103"
element="H"
mass="1.008"
annotation=""/>
</atomTypes>
<parameters>
</parameters>
</forcefield>
</ffml>

> <Initial Potential Energy>
188.50607

> <Initial RMS Gradient>
30.06701

> <Minimization Criteria>
STEEPD> Minimization exiting with gradient tolerance ( 3.0000000) satisfied.

> <CHARMm Energy>
76.85213

> <Potential Energy>
76.85213

> <RMS Gradient>
0.07987

> <Bond Energy>
8.28902

> <Angle Energy>
20.19834

> <STRBend>
0.41718

> <Dihedral Energy>
12.46263

> <OOPLane>
0.3133

> <Van der Waals Energy>
86.88451

> <Electrostatic Energy>
-51.71284

> <Hydrogen Bond Energy>
0

> <Solvation Free Energy>
0

> <HasGasteigerCharges>
true

> <REMARK99>
REMARK  99  MacroMolecule created from Mol2 file
REMARK  99  CHEMBL3355872
REMARK  99  PROTEIN
REMARK  99  GASTEIGER
REMARK  99
REMARK  99

$$$$
CHEMBL3263245
  SciTegic05292516403D

 54 56  0  0  0  0            999 V2000
   18.7613  -27.9788    0.4776 C   0  0
   18.5226  -29.3309    0.7046 C   0  0
   19.5317  -30.2770    0.4948 C   0  0
   20.7991  -29.8854    0.0560 C   0  0
   21.0434  -28.5050   -0.1447 C   0  0
   20.0203  -27.5637    0.0515 C   0  0
   22.3930  -28.0371   -0.5651 C   0  0
   22.8326  -26.8316   -0.0491 N   0  0
   23.0889  -28.7505   -1.2831 O   0  0
   24.1607  -26.3381   -0.3577 C   0  0
   25.2442  -27.1401    0.3646 C   0  0
   26.6474  -26.7613   -0.1094 C   0  0
   27.6778  -27.7678    0.4041 C   0  0
   21.8455  -30.8149   -0.1669 N   0  0
   21.8306  -32.1872   -0.0023 C   0  0
   23.1687  -32.8366   -0.1693 C   0  0
   20.8546  -32.8881    0.2438 O   0  0
   23.2285  -34.1390   -0.6689 C   0  0
   24.4597  -34.7818   -0.8247 C   0  0
   24.3558  -32.1846    0.1962 C   0  0
   25.6007  -32.8176    0.0405 C   0  0
   25.6535  -34.1326   -0.4774 C   0  0
   26.8988  -34.7635   -0.6274 C   0  0
   28.0785  -34.1061   -0.2738 C   0  0
   28.0255  -32.8113    0.2347 C   0  0
   26.7955  -32.1719    0.3935 C   0  0
   29.0881  -27.4362   -0.0767 C   0  0
   30.0665  -28.5233    0.2977 C   0  0
   31.3464  -28.1885    0.0067 O   0  0
   29.7873  -29.5997    0.8002 O   0  0
   17.9657  -27.2535    0.6284 H   0  0
   17.5433  -29.6644    1.0394 H   0  0
   19.2847  -31.3191    0.6783 H   0  0
   20.1868  -26.5089   -0.1456 H   0  0
   22.2580  -26.3055    0.5980 H   0  0
   24.2983  -26.3953   -1.4435 H   0  0
   24.1996  -25.2846   -0.0627 H   0  0
   25.1595  -26.9849    1.4474 H   0  0
   25.0895  -28.2128    0.1986 H   0  0
   26.6771  -26.7467   -1.2057 H   0  0
   26.8963  -25.7514    0.2367 H   0  0
   27.6590  -27.7970    1.5007 H   0  0
   27.4011  -28.7718    0.0588 H   0  0
   22.6933  -30.4034   -0.5611 H   0  0
   22.3138  -34.6587   -0.9402 H   0  0
   24.4775  -35.7982   -1.2154 H   0  0
   24.3240  -31.1863    0.6262 H   0  0
   26.9597  -35.7765   -1.0206 H   0  0
   29.0368  -34.6053   -0.3941 H   0  0
   28.9402  -32.2906    0.5111 H   0  0
   26.7848  -31.1613    0.7961 H   0  0
   29.1016  -27.3339   -1.1673 H   0  0
   29.4169  -26.4946    0.3765 H   0  0
   31.4908  -27.2958   -0.3656 H   0  0
  1  2  2  0
  1 31  1  0
  2  3  1  0
  2 32  1  0
  3  4  2  0
  3 33  1  0
  4  5  1  0
  4 14  1  0
  5  6  2  0
  5  7  1  0
  6  1  1  0
  6 34  1  0
  7  8  1  0
  7  9  2  0
  8 10  1  0
  8 35  1  0
 10 11  1  0
 10 36  1  0
 10 37  1  0
 11 12  1  0
 11 38  1  0
 11 39  1  0
 12 13  1  0
 12 40  1  0
 12 41  1  0
 13 27  1  0
 13 42  1  0
 13 43  1  0
 14 15  1  0
 14 44  1  0
 15 16  1  0
 15 17  2  0
 16 18  2  0
 18 19  1  0
 18 45  1  0
 19 22  2  0
 19 46  1  0
 20 16  1  0
 20 47  1  0
 21 20  2  0
 21 22  1  0
 22 23  1  0
 23 24  2  0
 23 48  1  0
 24 25  1  0
 24 49  1  0
 25 26  2  0
 25 50  1  0
 26 21  1  0
 26 51  1  0
 27 28  1  0
 27 52  1  0
 27 53  1  0
 28 29  1  0
 28 30  2  0
 29 54  1  0
M  END
> <Name>
CHEMBL3263245

> <Clean Energy>
-3.66436

> <chembl_id>
CHEMBL3263245

> <chembl_pref_name>
None

> <efficacy>
0.379867047

> <Forcefield>
MMFF

> <ForcefieldBase>
MMFF

> <ForcefieldFFML>
<?xml version="1.0" encoding="UTF-8"?>
<!DOCTYPE ffml SYSTEM "Ffml.dtd">
<ffml version="1.0">
<forcefield name="MMFF" derivedFrom="MMFF" base="MMFF">
<atomTypes>
<atomType
name="C100"
element="C"
mass="12.011"
annotation=""/>
<atomType
name="N101"
element="N"
mass="14.007"
annotation=""/>
<atomType
name="O102"
element="O"
mass="16"
annotation=""/>
<atomType
name="H103"
element="H"
mass="1.008"
annotation=""/>
</atomTypes>
<parameters>
</parameters>
</forcefield>
</ffml>

> <Initial Potential Energy>
226.55222

> <Initial RMS Gradient>
100.26878

> <Minimization Criteria>
STEEPD> Minimization exiting with gradient tolerance ( 3.0000000) satisfied.

> <CHARMm Energy>
19.5445

> <Potential Energy>
19.5445

> <RMS Gradient>
0.01805

> <Bond Energy>
6.78789

> <Angle Energy>
8.27384

> <STRBend>
0.92985

> <Dihedral Energy>
-4.90326

> <OOPLane>
0.12739

> <Van der Waals Energy>
63.89558

> <Electrostatic Energy>
-55.56678

> <Hydrogen Bond Energy>
0

> <Solvation Free Energy>
0

> <HasGasteigerCharges>
true

> <REMARK99>
REMARK  99  MacroMolecule created from Mol2 file
REMARK  99  CHEMBL3263245
REMARK  99  PROTEIN
REMARK  99  GASTEIGER
REMARK  99
REMARK  99

$$$$
CHEMBL5079792
  SciTegic05292516403D

 54 56  0  0  0  0            999 V2000
   -1.0031   -3.5693    1.0639 C   0  0
   -0.8878   -3.8770   -0.4352 C   0  0
   -1.3671   -5.2781   -0.8395 C   0  0
    8.9134   -4.6486    1.9467 C   0  0
    8.4004   -5.6426    1.1060 C   0  0
    8.9961   -5.9028   -0.1274 C   0  0
   10.0820   -5.1345   -0.5414 C   0  0
   10.5939   -4.1272    0.2842 C   0  0
    9.9968   -3.8817    1.5267 C   0  0
   11.6786   -3.3566   -0.1587 N   0  0
   12.7094   -3.6698    0.4758 N   0  0
   13.7840   -2.8866    0.0306 C   0  0
   14.5872   -3.3271   -1.0272 C   0  0
   15.6570   -2.5510   -1.4675 C   0  0
   15.9309   -1.3339   -0.8444 C   0  0
   15.1461   -0.8932    0.2204 C   0  0
   14.0771   -1.6711    0.6591 C   0  0
    7.3387   -6.4284    1.4632 O   0  0
    6.0943   -5.7282    1.2813 C   0  0
    5.3857   -6.2533    0.0327 C   0  0
    4.0580   -5.5782   -0.1971 C   0  0
    3.9426   -4.5070   -1.0868 C   0  0
    2.7048   -3.8865   -1.2848 C   0  0
    1.5603   -4.3113   -0.6010 C   0  0
    1.6816   -5.3663    0.2970 C   0  0
    2.9185   -5.9964    0.4968 C   0  0
    0.4409   -3.6023   -0.9132 O   0  0
   -1.8050   -2.8639   -1.1921 C   0  0
   -3.1154   -2.8940   -0.8164 O   0  0
   -1.4405   -2.0941   -2.0714 O   0  0
    8.2361   -4.3369    3.5032 Cl  0  0
   -0.2949   -4.1326    1.6736 H   0  0
   -2.0023   -3.7830    1.4560 H   0  0
   -0.7899   -2.5101    1.2522 H   0  0
   -1.1903   -5.4486   -1.9081 H   0  0
   -2.4364   -5.4205   -0.6527 H   0  0
   -0.8515   -6.0775   -0.3051 H   0  0
    8.6179   -6.6972   -0.7646 H   0  0
   10.5475   -5.3259   -1.5053 H   0  0
   10.3966   -3.0977    2.1637 H   0  0
   14.3610   -4.2741   -1.5098 H   0  0
   16.2805   -2.8916   -2.2907 H   0  0
   16.7637   -0.7272   -1.1872 H   0  0
   15.3720    0.0527    0.7066 H   0  0
   13.4560   -1.3331    1.4842 H   0  0
    5.4862   -5.9275    2.1716 H   0  0
    6.2205   -4.6382    1.2214 H   0  0
    6.0271   -6.1229   -0.8478 H   0  0
    5.2411   -7.3385    0.1145 H   0  0
    4.8108   -4.1454   -1.6346 H   0  0
    2.6262   -3.0588   -1.9878 H   0  0
    0.8482   -5.7384    0.8760 H   0  0
    2.9794   -6.8228    1.2028 H   0  0
   -3.3133   -3.5423   -0.1175 H   0  0
  1 32  1  0
  1 33  1  0
  1 34  1  0
  2  1  1  0
  2 28  1  0
  3  2  1  0
  3 35  1  0
  3 36  1  0
  3 37  1  0
  4  5  2  0
  4 31  1  0
  5  6  1  0
  5 18  1  0
  6  7  2  0
  6 38  1  0
  7  8  1  0
  7 39  1  0
  8  9  2  0
  8 10  1  0
  9  4  1  0
  9 40  1  0
 10 11  2  0
 11 12  1  0
 12 13  2  0
 13 14  1  0
 13 41  1  0
 14 15  2  0
 14 42  1  0
 15 16  1  0
 15 43  1  0
 16 17  2  0
 16 44  1  0
 17 12  1  0
 17 45  1  0
 18 19  1  0
 19 20  1  0
 19 46  1  0
 19 47  1  0
 20 21  1  0
 20 48  1  0
 20 49  1  0
 21 22  2  0
 22 23  1  0
 22 50  1  0
 23 24  2  0
 23 51  1  0
 24 25  1  0
 24 27  1  0
 25 26  2  0
 25 52  1  0
 26 21  1  0
 26 53  1  0
 27  2  1  0
 28 29  1  0
 28 30  2  0
 29 54  1  0
M  END
> <Name>
CHEMBL5079792

> <Clean Energy>
26.004499

> <chembl_id>
CHEMBL5079792

> <chembl_pref_name>
None

> <efficacy>
0.132953466

> <Forcefield>
MMFF

> <ForcefieldBase>
MMFF

> <ForcefieldFFML>
<?xml version="1.0" encoding="UTF-8"?>
<!DOCTYPE ffml SYSTEM "Ffml.dtd">
<ffml version="1.0">
<forcefield name="MMFF" derivedFrom="MMFF" base="MMFF">
<atomTypes>
<atomType
name="C100"
element="C"
mass="12.011"
annotation=""/>
<atomType
name="N101"
element="N"
mass="14.007"
annotation=""/>
<atomType
name="O102"
element="O"
mass="16"
annotation=""/>
<atomType
name="Cl103"
element="Cl"
mass="35.453"
annotation=""/>
<atomType
name="H104"
element="H"
mass="1.008"
annotation=""/>
</atomTypes>
<parameters>
</parameters>
</forcefield>
</ffml>

> <Initial Potential Energy>
181.34562

> <Initial RMS Gradient>
30.83857

> <Minimization Criteria>
CONJUG> Minimization exiting with gradient tolerance ( 0.0100000) satisfied.

> <CHARMm Energy>
106.00061

> <Potential Energy>
106.00061

> <RMS Gradient>
0.00956

> <Bond Energy>
6.26501

> <Angle Energy>
19.88641

> <STRBend>
0.44198

> <Dihedral Energy>
14.78551

> <OOPLane>
0.03145

> <Van der Waals Energy>
61.85195

> <Electrostatic Energy>
2.7383

> <Hydrogen Bond Energy>
0

> <Solvation Free Energy>
0

> <HasGasteigerCharges>
true

> <REMARK99>
REMARK  99  MacroMolecule created from Mol2 file
REMARK  99  CHEMBL5079792
REMARK  99  PROTEIN
REMARK  99  GASTEIGER
REMARK  99
REMARK  99

$$$$
CHEMBL4519376
  SciTegic05292516403D

 53 55  0  0  0  0            999 V2000
   13.7246   -8.3878   -0.4088 C   0  0
   12.2012   -8.4562   -0.1729 C   0  0  1  0  0  0
   11.8083   -9.6874    0.6588 C   0  0
   11.8191  -10.9736   -0.1800 C   0  0
   11.4712  -12.1962    0.6720 C   0  0
   11.5089  -13.4810   -0.1577 C   0  0
   11.1874  -14.7059    0.6978 C   0  0
   11.2401  -15.9866   -0.1201 C   0  0
   14.5286   -9.2801   -0.1749 O   0  0
   14.1283   -7.2162   -0.9690 O   0  0
   11.6965   -6.9159    0.7056 S   0  0
    8.9767   -5.7232    1.2813 S   0  0
    9.9628   -6.8360    0.4252 C   0  0
    9.3486   -7.5809   -0.4625 N   0  0
    7.9925   -7.2699   -0.4755 C   0  0
    7.5945   -6.2680    0.4104 C   0  0
    7.0072   -7.8614   -1.2877 C   0  0
    5.6658   -7.4478   -1.1877 C   0  0
    5.2761   -6.4479   -0.2957 C   0  0
    6.2529   -5.8384    0.5091 C   0  0
    2.8036   -6.5672   -0.7007 C   0  0
    1.5232   -5.9271   -0.3069 C   0  0
    1.3676   -4.5358   -0.2947 C   0  0
    0.1529   -3.9795    0.1086 C   0  0
   -0.9013   -4.8079    0.4953 C   0  0
   -0.7503   -6.1944    0.4667 C   0  0
    0.4579   -6.7562    0.0587 C   0  0
    2.7832   -7.5592   -1.4181 O   0  0
    3.9346   -6.0024   -0.1358 N   0  0
   11.7262   -8.4857   -1.1603 H   0  0
   12.4888   -9.8037    1.5124 H   0  0
   10.7978   -9.5722    1.0697 H   0  0
   11.0956  -10.8804   -0.9991 H   0  0
   12.8029  -11.1224   -0.6378 H   0  0
   12.1813  -12.2768    1.5038 H   0  0
   10.4738  -12.0687    1.1091 H   0  0
   10.7881  -13.4078   -0.9813 H   0  0
   12.5026  -13.5990   -0.6069 H   0  0
   11.9015  -14.7791    1.5260 H   0  0
   10.1900  -14.6004    1.1396 H   0  0
   11.0134  -16.8498    0.5135 H   0  0
   12.2353  -16.1346   -0.5527 H   0  0
   10.5093  -15.9614   -0.9351 H   0  0
   13.3960   -6.5742   -1.0529 H   0  0
    7.2861   -8.6428   -1.9892 H   0  0
    4.9490   -7.9391   -1.8404 H   0  0
    5.9927   -5.0584    1.2182 H   0  0
    2.1646   -3.8755   -0.6212 H   0  0
    0.0220   -2.8998    0.1123 H   0  0
   -1.8462   -4.3716    0.8093 H   0  0
   -1.5730   -6.8411    0.7588 H   0  0
    0.5754   -7.8378    0.0347 H   0  0
    3.8083   -5.2474    0.5240 H   0  0
  1  2  1  0
  1  9  2  0
  1 10  1  0
  2  3  1  0
  2 11  1  0
  2 30  1  0
  3  4  1  0
  3 31  1  0
  3 32  1  0
  4  5  1  0
  4 33  1  0
  4 34  1  0
  5  6  1  0
  5 35  1  0
  5 36  1  0
  6  7  1  0
  6 37  1  0
  6 38  1  0
  7  8  1  0
  7 39  1  0
  7 40  1  0
  8 41  1  0
  8 42  1  0
  8 43  1  0
 10 44  1  0
 11 13  1  0
 12 13  1  0
 12 16  1  0
 13 14  2  0
 14 15  1  0
 15 16  1  0
 15 17  2  0
 16 20  2  0
 17 18  1  0
 17 45  1  0
 18 19  2  0
 18 46  1  0
 19 20  1  0
 19 29  1  0
 20 47  1  0
 21 22  1  0
 21 28  2  0
 21 29  1  0
 22 23  1  0
 22 27  2  0
 23 24  2  0
 23 48  1  0
 24 25  1  0
 24 49  1  0
 25 26  2  0
 25 50  1  0
 26 27  1  0
 26 51  1  0
 27 52  1  0
 29 53  1  0
M  END
> <Name>
CHEMBL4519376

> <Clean Energy>
29.622999

> <chembl_id>
CHEMBL4519376

> <chembl_pref_name>
None

> <efficacy>
0.408357075

> <Forcefield>
MMFF

> <ForcefieldBase>
MMFF

> <ForcefieldFFML>
<?xml version="1.0" encoding="UTF-8"?>
<!DOCTYPE ffml SYSTEM "Ffml.dtd">
<ffml version="1.0">
<forcefield name="MMFF" derivedFrom="MMFF" base="MMFF">
<atomTypes>
<atomType
name="C100"
element="C"
mass="12.011"
annotation=""/>
<atomType
name="O101"
element="O"
mass="16"
annotation=""/>
<atomType
name="S102"
element="S"
mass="32.066"
annotation=""/>
<atomType
name="N103"
element="N"
mass="14.007"
annotation=""/>
<atomType
name="H104"
element="H"
mass="1.008"
annotation=""/>
</atomTypes>
<parameters>
</parameters>
</forcefield>
</ffml>

> <Initial Potential Energy>
82.21313

> <Initial RMS Gradient>
28.0513

> <Minimization Criteria>
STEEPD> Minimization exiting with gradient tolerance ( 3.0000000) satisfied.

> <CHARMm Energy>
19.3985

> <Potential Energy>
19.3985

> <RMS Gradient>
0.09504

> <Bond Energy>
6.22537

> <Angle Energy>
10.55097

> <STRBend>
-0.07024

> <Dihedral Energy>
-5.58783

> <OOPLane>
0.15268

> <Van der Waals Energy>
45.26302

> <Electrostatic Energy>
-37.13547

> <Hydrogen Bond Energy>
0

> <Solvation Free Energy>
0

> <HasGasteigerCharges>
true

> <REMARK99>
REMARK  99  MacroMolecule created from Mol2 file
REMARK  99  CHEMBL4519376
REMARK  99  PROTEIN
REMARK  99  GASTEIGER
REMARK  99
REMARK  99

$$$$
CHEMBL4091398
  SciTegic05292516403D

 42 45  0  0  0  0            999 V2000
   28.8036  -22.0806   -0.0001 N   0  0
   28.8809  -23.4329   -0.0026 C   0  0
   27.5680  -21.5080    0.0013 C   0  0
   27.2622  -24.1089   -0.0037 S   0  0
   26.5135  -22.5622   -0.0002 C   0  0
   29.8972  -24.1022   -0.0038 O   0  0
   27.3629  -20.3044    0.0034 O   0  0
   25.2224  -22.1987    0.0012 C   0  0
   23.9406  -22.9375    0.0004 C   0  0
   21.3617  -24.1368   -0.0001 C   0  0
   17.7882  -25.0500    0.0004 C   0  0
   23.7929  -24.3258    0.0022 C   0  0
   22.7644  -22.1647   -0.0016 C   0  0
   18.9779  -24.0809   -0.0005 C   0  0
   22.5186  -24.9159    0.0019 C   0  0
   21.4915  -22.7525   -0.0018 C   0  0
   20.1882  -24.8395    0.0000 O   0  0
   16.5260  -24.3403   -0.0001 N   0  0
   15.3171  -24.9424   -0.0001 C   0  0
   14.2161  -24.2305   -0.0005 N   0  0
   15.0730  -26.6479    0.0005 S   0  0
   13.3713  -26.4206    0.0001 C   0  0
   13.1022  -25.0531   -0.0004 C   0  0
   11.7586  -24.6273   -0.0008 C   0  0
   10.7299  -25.5748   -0.0007 C   0  0
   11.0237  -26.9350   -0.0001 C   0  0
   12.3474  -27.3823    0.0003 C   0  0
   29.6420  -21.5204    0.0007 H   0  0
   25.0511  -21.1184    0.0034 H   0  0
   17.8659  -25.6997   -0.8805 H   0  0
   17.8660  -25.6983    0.8823 H   0  0
   24.6460  -24.9934    0.0042 H   0  0
   22.8200  -21.0764   -0.0030 H   0  0
   18.9273  -23.4504   -0.8970 H   0  0
   18.9274  -23.4489    0.8950 H   0  0
   22.4307  -26.0005    0.0033 H   0  0
   20.6294  -22.0941   -0.0033 H   0  0
   16.5354  -23.3266   -0.0004 H   0  0
   11.5355  -23.5651   -0.0012 H   0  0
    9.6947  -25.2430   -0.0010 H   0  0
   10.2144  -27.6617    0.0000 H   0  0
   12.5798  -28.4426    0.0007 H   0  0
  1 28  1  0
  2  1  1  0
  3  1  1  0
  4  2  1  0
  5  3  1  0
  5  4  1  0
  6  2  2  0
  7  3  2  0
  8  5  2  0
  8 29  1  0
  9  8  1  0
 10 15  2  0
 10 16  1  0
 11 14  1  0
 11 18  1  0
 11 30  1  0
 11 31  1  0
 12  9  2  0
 12 32  1  0
 13  9  1  0
 13 33  1  0
 14 17  1  0
 14 34  1  0
 14 35  1  0
 15 12  1  0
 15 36  1  0
 16 13  2  0
 16 37  1  0
 17 10  1  0
 18 19  1  0
 18 38  1  0
 19 20  2  0
 20 23  1  0
 21 19  1  0
 22 21  1  0
 22 23  2  0
 23 24  1  0
 24 25  2  0
 24 39  1  0
 25 26  1  0
 25 40  1  0
 26 27  2  0
 26 41  1  0
 27 22  1  0
 27 42  1  0
M  END
> <Name>
CHEMBL4091398

> <Clean Energy>
48.044998

> <chembl_id>
CHEMBL4091398

> <chembl_pref_name>
None

> <efficacy>
0.104463438

> <Forcefield>
MMFF

> <ForcefieldBase>
MMFF

> <ForcefieldFFML>
<?xml version="1.0" encoding="UTF-8"?>
<!DOCTYPE ffml SYSTEM "Ffml.dtd">
<ffml version="1.0">
<forcefield name="MMFF" derivedFrom="MMFF" base="MMFF">
<atomTypes>
<atomType
name="N100"
element="N"
mass="14.007"
annotation=""/>
<atomType
name="C101"
element="C"
mass="12.011"
annotation=""/>
<atomType
name="S102"
element="S"
mass="32.066"
annotation=""/>
<atomType
name="O103"
element="O"
mass="16"
annotation=""/>
<atomType
name="H104"
element="H"
mass="1.008"
annotation=""/>
</atomTypes>
<parameters>
</parameters>
</forcefield>
</ffml>

> <Initial Potential Energy>
35.03253

> <Initial RMS Gradient>
31.73314

> <Minimization Criteria>
CONJUG> Minimization exiting with gradient tolerance ( 0.0100000) satisfied.

> <CHARMm Energy>
-27.22575

> <Potential Energy>
-27.22575

> <RMS Gradient>
0.00907

> <Bond Energy>
4.20894

> <Angle Energy>
25.80657

> <STRBend>
-0.93455

> <Dihedral Energy>
0.9741

> <OOPLane>
0

> <Van der Waals Energy>
41.17185

> <Electrostatic Energy>
-98.45266

> <Hydrogen Bond Energy>
0

> <Solvation Free Energy>
0

> <HasGasteigerCharges>
true

> <REMARK99>
REMARK  99  MacroMolecule created from Mol2 file
REMARK  99  CHEMBL4091398
REMARK  99  PROTEIN
REMARK  99  GASTEIGER
REMARK  99
REMARK  99

$$$$
CHEMBL4069460
  SciTegic05292516403D

 60 64  0  0  0  0            999 V2000
   29.0912   -3.3250    1.4539 C   0  0
   29.1854   -4.3321    0.4794 C   0  0
   30.3736   -4.4788   -0.2648 C   0  0
   30.1668   -2.4662    1.7177 C   0  0
   31.3535   -2.6190    0.9844 C   0  0
   31.4380   -3.6064    0.0098 C   0  0
   32.7082   -3.4615   -0.5090 N   0  0
   33.3296   -2.4197    0.1562 C   0  0
   32.5239   -1.9126    1.0687 N   0  0
   34.7338   -1.9685   -0.1201 C   0  0
   35.0322   -0.5880    0.4671 C   0  0
   36.4512   -0.1449    0.1458 C   0  0
   33.2660   -4.2400   -1.6088 C   0  0
   34.4773   -5.0485   -1.2130 C   0  0
   34.4974   -5.8118   -0.0371 C   0  0
   35.6476   -6.5115    0.3335 C   0  0
   36.7970   -6.4826   -0.4693 C   0  0
   36.7566   -5.7636   -1.6717 C   0  0
   35.6104   -5.0541   -2.0399 C   0  0
   38.0112   -7.2012   -0.0607 C   0  0
   38.0121   -8.6060   -0.1589 C   0  0
   39.1339   -9.3561    0.1939 C   0  0
   40.2846   -8.7185    0.6438 C   0  0
   40.3111   -7.3285    0.7515 C   0  0
   39.1805   -6.5622    0.4104 C   0  0
   39.2286   -5.0860    0.6067 C   0  0
   40.4885   -4.6069    0.5454 O   0  0
   38.2949   -4.3302    0.7970 O   0  0
   28.0488   -5.2305    0.2270 C   0  0
   27.0970   -4.8720   -0.7454 C   0  0
   26.0066   -5.6984   -1.0274 C   0  0
   25.8441   -6.8973   -0.3379 C   0  0
   26.7739   -7.2719    0.6315 C   0  0
   27.8709   -6.4478    0.9105 C   0  0
   28.9966   -6.9892    2.1093 Cl  0  0
   28.1708   -3.2041    2.0263 H   0  0
   30.4554   -5.2541   -1.0200 H   0  0
   30.1031   -1.6975    2.4790 H   0  0
   35.4303   -2.6987    0.3077 H   0  0
   34.9041   -1.9371   -1.2024 H   0  0
   34.3253    0.1515    0.0715 H   0  0
   34.9015   -0.6044    1.5560 H   0  0
   36.6483    0.8402    0.5799 H   0  0
   36.6055   -0.0765   -0.9358 H   0  0
   37.1834   -0.8490    0.5535 H   0  0
   32.4979   -4.9128   -2.0015 H   0  0
   33.5046   -3.5202   -2.4008 H   0  0
   33.6324   -5.8417    0.6238 H   0  0
   35.6559   -7.0605    1.2736 H   0  0
   37.6288   -5.7374   -2.3219 H   0  0
   35.6277   -4.4853   -2.9676 H   0  0
   37.1254   -9.1265   -0.5202 H   0  0
   39.0967  -10.4386    0.1180 H   0  0
   41.1575   -9.2995    0.9239 H   0  0
   41.2145   -6.8480    1.1219 H   0  0
   40.3567   -3.6454    0.6871 H   0  0
   27.2157   -3.9370   -1.2913 H   0  0
   25.2851   -5.4047   -1.7860 H   0  0
   24.9945   -7.5411   -0.5546 H   0  0
   26.6410   -8.2093    1.1664 H   0  0
  1  2  2  0
  1 36  1  0
  2  3  1  0
  2 29  1  0
  3  6  2  0
  3 37  1  0
  4  1  1  0
  4 38  1  0
  5  4  2  0
  5  6  1  0
  6  7  1  0
  7  8  1  0
  7 13  1  0
  8  9  2  0
  8 10  1  0
  9  5  1  0
 10 11  1  0
 10 39  1  0
 10 40  1  0
 11 12  1  0
 11 41  1  0
 11 42  1  0
 12 43  1  0
 12 44  1  0
 12 45  1  0
 13 14  1  0
 13 46  1  0
 13 47  1  0
 14 15  2  0
 15 16  1  0
 15 48  1  0
 16 17  2  0
 16 49  1  0
 17 18  1  0
 17 20  1  0
 18 19  2  0
 18 50  1  0
 19 14  1  0
 19 51  1  0
 20 21  2  0
 21 22  1  0
 21 52  1  0
 22 23  2  0
 22 53  1  0
 23 24  1  0
 23 54  1  0
 24 25  2  0
 24 55  1  0
 25 20  1  0
 25 26  1  0
 26 27  1  0
 26 28  2  0
 27 56  1  0
 29 30  2  0
 30 31  1  0
 30 57  1  0
 31 32  2  0
 31 58  1  0
 32 33  1  0
 32 59  1  0
 33 34  2  0
 33 60  1  0
 34 29  1  0
 34 35  1  0
M  END
> <Name>
CHEMBL4069460

> <Clean Energy>
54.920898

> <chembl_id>
CHEMBL4069460

> <chembl_pref_name>
None

> <efficacy>
0.305792972

> <Forcefield>
MMFF

> <ForcefieldBase>
MMFF

> <ForcefieldFFML>
<?xml version="1.0" encoding="UTF-8"?>
<!DOCTYPE ffml SYSTEM "Ffml.dtd">
<ffml version="1.0">
<forcefield name="MMFF" derivedFrom="MMFF" base="MMFF">
<atomTypes>
<atomType
name="C100"
element="C"
mass="12.011"
annotation=""/>
<atomType
name="N101"
element="N"
mass="14.007"
annotation=""/>
<atomType
name="O102"
element="O"
mass="16"
annotation=""/>
<atomType
name="Cl103"
element="Cl"
mass="35.453"
annotation=""/>
<atomType
name="H104"
element="H"
mass="1.008"
annotation=""/>
</atomTypes>
<parameters>
</parameters>
</forcefield>
</ffml>

> <Initial Potential Energy>
327.82788

> <Initial RMS Gradient>
40.5502

> <Minimization Criteria>
STEEPD> Minimization exiting with gradient tolerance ( 3.0000000) satisfied.

> <CHARMm Energy>
94.28466

> <Potential Energy>
94.28466

> <RMS Gradient>
0.04233

> <Bond Energy>
9.23159

> <Angle Energy>
10.02379

> <STRBend>
-0.54703

> <Dihedral Energy>
13.56707

> <OOPLane>
0.0311

> <Van der Waals Energy>
68.99284

> <Electrostatic Energy>
-7.01471

> <Hydrogen Bond Energy>
0

> <Solvation Free Energy>
0

> <HasGasteigerCharges>
true

> <REMARK99>
REMARK  99  MacroMolecule created from Mol2 file
REMARK  99  CHEMBL4069460
REMARK  99  PROTEIN
REMARK  99  GASTEIGER
REMARK  99
REMARK  99

$$$$
CHEMBL4752692
  SciTegic05292516403D

 51 54  0  0  0  0            999 V2000
    4.5227  -26.9323   -0.5931 C   0  0
    4.4756  -28.3134   -0.3792 C   0  0
    5.6571  -29.0666   -0.2780 C   0  0
    5.7519  -26.2665   -0.6930 C   0  0
    6.9388  -27.0068   -0.5906 C   0  0
    6.8771  -28.3821   -0.3886 C   0  0
    8.1968  -28.7752   -0.3553 N   0  0
    8.9861  -27.6580   -0.5404 C   0  0
    8.2370  -26.5791   -0.6777 N   0  0
    8.6772  -30.1240   -0.1679 C   0  0
   10.4789  -27.6846   -0.6357 C   0  0
   10.9907  -28.2183    0.5893 O   0  0
   12.3498  -28.2509    0.7358 C   0  0
   12.7899  -28.6765    1.9940 C   0  0
   14.1525  -28.7741    2.2840 C   0  0
   15.0931  -28.4381    1.3135 C   0  0
   14.6574  -27.9963    0.0591 C   0  0
   13.2894  -27.9163   -0.2379 C   0  0
   15.6246  -27.6413   -1.0025 C   0  0
   16.6533  -26.8944   -0.5511 O   0  0
   15.4746  -27.9635   -2.1674 O   0  0
    3.3078  -29.0517   -0.3191 O   0  0
    2.1495  -28.4055    0.0320 C   0  0
    1.9618  -27.9329    1.3284 C   0  0
    0.7521  -27.3294    1.6624 C   0  0
   -0.2389  -27.2260    0.6897 C   0  0
   -0.0768  -27.6960   -0.5716 N   0  0
    1.1041  -28.2912   -0.8846 C   0  0
    1.2442  -28.8186   -2.2815 C   0  0
   -1.5529  -26.5807    1.0185 C   0  0
    3.6142  -26.3470   -0.7038 H   0  0
    5.6130  -30.1407   -0.1334 H   0  0
    5.7948  -25.1966   -0.8671 H   0  0
    9.5158  -30.3060   -0.8442 H   0  0
    7.8816  -30.8365   -0.3962 H   0  0
    8.9899  -30.2332    0.8735 H   0  0
   10.7788  -28.3105   -1.4842 H   0  0
   10.8435  -26.6607   -0.7825 H   0  0
   12.0608  -28.9407    2.7578 H   0  0
   14.4737  -29.1236    3.2626 H   0  0
   16.1520  -28.5519    1.5326 H   0  0
   13.0000  -27.5933   -1.2339 H   0  0
   16.5459  -26.5705    0.3632 H   0  0
    2.7474  -28.0361    2.0712 H   0  0
    0.5863  -26.9514    2.6662 H   0  0
    2.0584  -28.3047   -2.8018 H   0  0
    0.3235  -28.6579   -2.8518 H   0  0
    1.4469  -29.8940   -2.2641 H   0  0
   -2.2145  -26.5776    0.1463 H   0  0
   -1.3965  -25.5438    1.3317 H   0  0
   -2.0519  -27.1291    1.8235 H   0  0
  1  2  2  0
  1 31  1  0
  2  3  1  0
  2 22  1  0
  3  6  2  0
  3 32  1  0
  4  1  1  0
  4 33  1  0
  5  4  2  0
  5  6  1  0
  6  7  1  0
  7  8  1  0
  7 10  1  0
  8  9  2  0
  8 11  1  0
  9  5  1  0
 10 34  1  0
 10 35  1  0
 10 36  1  0
 11 12  1  0
 11 37  1  0
 11 38  1  0
 12 13  1  0
 13 14  2  0
 14 15  1  0
 14 39  1  0
 15 16  2  0
 15 40  1  0
 16 17  1  0
 16 41  1  0
 17 18  2  0
 17 19  1  0
 18 13  1  0
 18 42  1  0
 19 20  1  0
 19 21  2  0
 20 43  1  0
 22 23  1  0
 23 24  2  0
 24 25  1  0
 24 44  1  0
 25 26  2  0
 25 45  1  0
 26 27  1  0
 26 30  1  0
 27 28  2  0
 28 23  1  0
 28 29  1  0
 29 46  1  0
 29 47  1  0
 29 48  1  0
 30 49  1  0
 30 50  1  0
 30 51  1  0
M  END
> <Name>
CHEMBL4752692

> <Clean Energy>
31.9697

> <chembl_id>
CHEMBL4752692

> <chembl_pref_name>
None

> <efficacy>
0.36

> <Forcefield>
MMFF

> <ForcefieldBase>
MMFF

> <ForcefieldFFML>
<?xml version="1.0" encoding="UTF-8"?>
<!DOCTYPE ffml SYSTEM "Ffml.dtd">
<ffml version="1.0">
<forcefield name="MMFF" derivedFrom="MMFF" base="MMFF">
<atomTypes>
<atomType
name="C100"
element="C"
mass="12.011"
annotation=""/>
<atomType
name="N101"
element="N"
mass="14.007"
annotation=""/>
<atomType
name="O102"
element="O"
mass="16"
annotation=""/>
<atomType
name="H103"
element="H"
mass="1.008"
annotation=""/>
</atomTypes>
<parameters>
</parameters>
</forcefield>
</ffml>

> <Initial Potential Energy>
214.25836

> <Initial RMS Gradient>
47.23675

> <Minimization Criteria>
CONJUG> Minimization exiting with gradient tolerance ( 0.0100000) satisfied.

> <CHARMm Energy>
78.35409

> <Potential Energy>
78.35409

> <RMS Gradient>
0.00999

> <Bond Energy>
4.83526

> <Angle Energy>
17.20863

> <STRBend>
0.28241

> <Dihedral Energy>
10.22952

> <OOPLane>
0.12739

> <Van der Waals Energy>
58.6717

> <Electrostatic Energy>
-13.00082

> <Hydrogen Bond Energy>
0

> <Solvation Free Energy>
0

> <HasGasteigerCharges>
true

> <REMARK99>
REMARK  99  MacroMolecule created from Mol2 file
REMARK  99  CHEMBL4752692
REMARK  99  PROTEIN
REMARK  99  GASTEIGER
REMARK  99
REMARK  99

$$$$
CHEMBL5078096
  SciTegic05292516403D

 57 59  0  0  0  0            999 V2000
   -0.4108  -11.5988    0.1668 C   0  0
    0.1181  -10.9571   -1.1253 C   0  0
   -0.6711  -11.5405   -2.3144 C   0  0
   10.6704   -9.3790    1.3273 C   0  0
    9.4306   -9.9814    1.0603 C   0  0
    9.3720  -11.1154    0.2406 C   0  0
   10.5311  -11.6425   -0.3262 C   0  0
   11.7701  -11.0636   -0.0624 C   0  0
   11.8345   -9.9321    0.7558 C   0  0
   12.9236  -11.6257   -0.6298 N   0  0
   13.6610  -12.0822    0.2702 N   0  0
    8.3310   -9.4580    1.6802 O   0  0
    7.0792   -9.5548    0.9922 C   0  0
    6.2085  -10.6302    1.6419 C   0  0
    4.9183  -10.8338    0.8920 C   0  0
    3.7687  -10.1128    1.2336 C   0  0
    2.5785  -10.2685    0.5082 C   0  0
    2.5241  -11.1446   -0.5701 C   0  0
    3.6766  -11.8591   -0.9152 C   0  0
    4.8627  -11.7112   -0.1939 C   0  0
    1.4617  -11.3917   -1.3849 O   0  0
   -0.1064   -9.4210   -1.1570 C   0  0
   -1.3870   -9.0255   -0.9355 O   0  0
    0.7816   -8.5992   -1.3537 O   0  0
   14.7904  -12.7222   -0.2687 C   0  0
   15.1664  -13.9611    0.2605 C   0  0
   16.2850  -14.6334   -0.2297 C   0  0
   17.0429  -14.0667   -1.2530 C   0  0
   16.6901  -12.8244   -1.7777 C   0  0
   15.5731  -12.1529   -1.2831 C   0  0
   10.8332   -8.1800    2.2297 C   0  0
   11.7857   -7.3106    1.7640 F   0  0
   11.2706   -8.5226    3.4798 F   0  0
    9.7106   -7.4304    2.3995 F   0  0
   -0.1004  -12.6473    0.2397 H   0  0
   -1.5038  -11.5641    0.2265 H   0  0
   -0.0338  -11.0883    1.0579 H   0  0
   -0.3214  -11.1062   -3.2590 H   0  0
   -1.7472  -11.3535   -2.2392 H   0  0
   -0.5172  -12.6235   -2.3923 H   0  0
    8.4369  -11.6277    0.0420 H   0  0
   10.4854  -12.5280   -0.9556 H   0  0
   12.8064   -9.4832    0.9576 H   0  0
    6.5877   -8.5800    1.1011 H   0  0
    7.2027   -9.7024   -0.0883 H   0  0
    6.7499  -11.5817    1.7098 H   0  0
    6.0016  -10.3567    2.6847 H   0  0
    3.7905   -9.4054    2.0607 H   0  0
    1.7340   -9.6568    0.8008 H   0  0
    3.6496  -12.5362   -1.7656 H   0  0
    5.7415  -12.2771   -0.4954 H   0  0
   -2.0160   -9.7468   -0.7615 H   0  0
   14.5732  -14.4034    1.0571 H   0  0
   16.5687  -15.5947    0.1897 H   0  0
   17.9145  -14.5900   -1.6362 H   0  0
   17.2876  -12.3757   -2.5670 H   0  0
   15.3022  -11.1824   -1.6910 H   0  0
  1 35  1  0
  1 36  1  0
  1 37  1  0
  2  1  1  0
  2 22  1  0
  3  2  1  0
  3 38  1  0
  3 39  1  0
  3 40  1  0
  4  5  2  0
  4 31  1  0
  5  6  1  0
  5 12  1  0
  6  7  2  0
  6 41  1  0
  7  8  1  0
  7 42  1  0
  8  9  2  0
  8 10  1  0
  9  4  1  0
  9 43  1  0
 10 11  2  0
 11 25  1  0
 12 13  1  0
 13 14  1  0
 13 44  1  0
 13 45  1  0
 14 15  1  0
 14 46  1  0
 14 47  1  0
 15 16  2  0
 16 17  1  0
 16 48  1  0
 17 18  2  0
 17 49  1  0
 18 19  1  0
 18 21  1  0
 19 20  2  0
 19 50  1  0
 20 15  1  0
 20 51  1  0
 21  2  1  0
 22 23  1  0
 22 24  2  0
 23 52  1  0
 25 26  2  0
 26 27  1  0
 26 53  1  0
 27 28  2  0
 27 54  1  0
 28 29  1  0
 28 55  1  0
 29 30  2  0
 29 56  1  0
 30 25  1  0
 30 57  1  0
 31 32  1  0
 31 33  1  0
 31 34  1  0
M  END
> <Name>
CHEMBL5078096

> <Clean Energy>
65.057198

> <chembl_id>
CHEMBL5078096

> <chembl_pref_name>
None

> <efficacy>
0.303893637

> <Forcefield>
MMFF

> <ForcefieldBase>
MMFF

> <ForcefieldFFML>
<?xml version="1.0" encoding="UTF-8"?>
<!DOCTYPE ffml SYSTEM "Ffml.dtd">
<ffml version="1.0">
<forcefield name="MMFF" derivedFrom="MMFF" base="MMFF">
<atomTypes>
<atomType
name="C100"
element="C"
mass="12.011"
annotation=""/>
<atomType
name="N101"
element="N"
mass="14.007"
annotation=""/>
<atomType
name="O102"
element="O"
mass="16"
annotation=""/>
<atomType
name="F103"
element="F"
mass="18.998"
annotation=""/>
<atomType
name="H104"
element="H"
mass="1.008"
annotation=""/>
</atomTypes>
<parameters>
</parameters>
</forcefield>
</ffml>

> <Initial Potential Energy>
389.05034

> <Initial RMS Gradient>
89.33956

> <Minimization Criteria>
CONJUG> Minimization exiting with gradient tolerance ( 0.0100000) satisfied.

> <CHARMm Energy>
103.49528

> <Potential Energy>
103.49528

> <RMS Gradient>
0.0086

> <Bond Energy>
6.6846

> <Angle Energy>
24.18815

> <STRBend>
-0.00792

> <Dihedral Energy>
7.91135

> <OOPLane>
0.06555

> <Van der Waals Energy>
64.80247

> <Electrostatic Energy>
-0.14892

> <Hydrogen Bond Energy>
0

> <Solvation Free Energy>
0

> <HasGasteigerCharges>
true

> <REMARK99>
REMARK  99  MacroMolecule created from Mol2 file
REMARK  99  CHEMBL5078096
REMARK  99  PROTEIN
REMARK  99  GASTEIGER
REMARK  99
REMARK  99

$$$$
CHEMBL148319
  SciTegic05292516403D

 59 60  0  0  0  0            999 V2000
    1.3255    1.3499    0.6887 C   0  0  1  0  0  0
    1.8690    2.7975    0.6707 C   0  0  2  0  0  0
    0.7028    1.1160   -0.7085 C   0  0  1  0  0  0
   -0.4080    0.0927   -0.6811 C   0  0
    0.3668    2.5353   -1.1846 C   0  0  1  0  0  0
    3.7209    1.2999    0.7413 C   0  0
    1.5915    3.3245   -0.7390 C   0  0
    2.5177    0.4348    0.9976 C   0  0
    3.3481    2.7275    1.0351 C   0  0
   -1.6503    0.1927   -1.1917 C   0  0
    8.6256   -2.5427    0.2665 C   0  0
    4.9198    0.9267    0.2615 C   0  0
    9.3466   -1.9990    1.0894 O   0  0
    0.1896    2.6214   -2.5929 O   0  0
    9.0721   -3.5991   -0.4699 O   0  0
   -2.6853   -0.9134   -1.2252 C   0  0  1  0  0  0
   -2.0635   -2.1693   -0.9313 O   0  0
    7.1853   -2.1953   -0.0516 C   0  0
    5.3513   -0.4709   -0.0867 C   0  0
   -3.8187   -0.6511   -0.2310 C   0  0
    6.7686   -0.7986    0.4106 C   0  0
   -7.1864   -2.4400    0.5294 C   0  0
   -6.0769   -1.3934    0.6307 C   0  0
   -4.9277   -1.7048   -0.3302 C   0  0
   -8.3336   -2.1281    1.4771 C   0  0
    0.5627    1.2445    1.4713 H   0  0
    1.3273    3.4163    1.3969 H   0  0
    1.4662    0.7014   -1.3838 H   0  0
   -0.1190   -0.8405   -0.1983 H   0  0
   -0.5351    2.9238   -0.6969 H   0  0
    1.4032    4.4032   -0.7457 H   0  0
    2.4348    3.1480   -1.4187 H   0  0
    2.5007   -0.4830    0.4039 H   0  0
    2.5019    0.1577    2.0582 H   0  0
    3.4744    2.9107    2.1088 H   0  0
    3.9516    3.4585    0.4881 H   0  0
   -1.9801    1.1206   -1.6638 H   0  0
    5.6666    1.7020    0.0896 H   0  0
    0.9660    2.1932   -2.9998 H   0  0
    8.3618   -3.9245   -1.0620 H   0  0
   -3.0835   -0.9836   -2.2437 H   0  0
   -1.2062   -2.1986   -1.3978 H   0  0
    7.0587   -2.2509   -1.1396 H   0  0
    6.5454   -2.9539    0.4127 H   0  0
    4.6541   -1.2123    0.3182 H   0  0
    5.3243   -0.5647   -1.1795 H   0  0
   -3.4219   -0.6584    0.7929 H   0  0
   -4.2460    0.3437   -0.4090 H   0  0
    6.8084   -0.7408    1.5054 H   0  0
    7.4821   -0.0575    0.0289 H   0  0
   -7.5692   -2.4794   -0.4971 H   0  0
   -6.7848   -3.4326    0.7644 H   0  0
   -6.4868   -0.4017    0.4040 H   0  0
   -5.6970   -1.3589    1.6591 H   0  0
   -4.5210   -2.6972   -0.1026 H   0  0
   -5.3091   -1.7383   -1.3577 H   0  0
   -9.1154   -2.8889    1.3899 H   0  0
   -8.7792   -1.1553    1.2463 H   0  0
   -7.9904   -2.1110    2.5166 H   0  0
  1 26  1  0
  2  1  1  0
  2 27  1  0
  3  1  1  0
  3  4  1  0
  3 28  1  0
  4 29  1  0
  5  3  1  0
  5 14  1  0
  5 30  1  0
  6  8  1  0
  6  9  1  0
  7  2  1  0
  7  5  1  0
  7 31  1  0
  7 32  1  0
  8  1  1  0
  8 33  1  0
  8 34  1  0
  9  2  1  0
  9 35  1  0
  9 36  1  0
 10  4  2  0
 10 37  1  0
 11 18  1  0
 12  6  2  0
 12 38  1  0
 13 11  2  0
 14 39  1  0
 15 11  1  0
 15 40  1  0
 16 10  1  0
 16 17  1  0
 16 41  1  0
 17 42  1  0
 18 21  1  0
 18 43  1  0
 18 44  1  0
 19 12  1  0
 19 45  1  0
 19 46  1  0
 20 16  1  0
 20 47  1  0
 20 48  1  0
 21 19  1  0
 21 49  1  0
 21 50  1  0
 22 23  1  0
 22 51  1  0
 22 52  1  0
 23 24  1  0
 23 53  1  0
 23 54  1  0
 24 20  1  0
 24 55  1  0
 24 56  1  0
 25 22  1  0
 25 57  1  0
 25 58  1  0
 25 59  1  0
M  END
> <Name>
CHEMBL148319

> <Clean Energy>
109.803001

> <chembl_id>
CHEMBL148319

> <chembl_pref_name>
CARBACYCLIN

> <efficacy>
0.185

> <Forcefield>
MMFF

> <ForcefieldBase>
MMFF

> <ForcefieldFFML>
<?xml version="1.0" encoding="UTF-8"?>
<!DOCTYPE ffml SYSTEM "Ffml.dtd">
<ffml version="1.0">
<forcefield name="MMFF" derivedFrom="MMFF" base="MMFF">
<atomTypes>
<atomType
name="C100"
element="C"
mass="12.011"
annotation=""/>
<atomType
name="O101"
element="O"
mass="16"
annotation=""/>
<atomType
name="H102"
element="H"
mass="1.008"
annotation=""/>
</atomTypes>
<parameters>
</parameters>
</forcefield>
</ffml>

> <Initial Potential Energy>
97.98394

> <Initial RMS Gradient>
17.72809

> <Minimization Criteria>
STEEPD> Minimization exiting with gradient tolerance ( 3.0000000) satisfied.

> <CHARMm Energy>
7.09501

> <Potential Energy>
7.09501

> <RMS Gradient>
0.07888

> <Bond Energy>
4.30308

> <Angle Energy>
15.55237

> <STRBend>
-0.70445

> <Dihedral Energy>
-9.15236

> <OOPLane>
0.03576

> <Van der Waals Energy>
27.62463

> <Electrostatic Energy>
-30.56402

> <Hydrogen Bond Energy>
0

> <Solvation Free Energy>
0

> <HasGasteigerCharges>
true

> <REMARK99>
REMARK  99  MacroMolecule created from Mol2 file
REMARK  99  CHEMBL148319
REMARK  99  PROTEIN
REMARK  99  GASTEIGER
REMARK  99
REMARK  99

$$$$
CHEMBL4591564
  SciTegic05292516403D

 58 62  0  0  0  0            999 V2000
   18.3401   -1.9347    1.5648 C   0  0
   18.7821   -3.0742    2.2320 C   0  0
   19.9899   -3.6841    1.8729 C   0  0
   19.1123   -1.3568    0.5475 C   0  0
   20.3506   -1.9337    0.1960 C   0  0
   20.7625   -3.0930    0.8547 C   0  0
   21.9769   -3.4605    0.2967 N   0  0
   22.3885   -2.5096   -0.6202 C   0  0
   21.3680   -1.5788   -0.7430 C   0  0
   21.3438   -0.4126   -1.6670 C   0  0
   23.6995   -2.5719   -1.3287 C   0  0
   17.0401   -1.3268    1.9429 C   0  0
   16.7432   -1.1445    3.1166 O   0  0
   16.2168   -1.0176    0.8821 N   0  0
   22.7069   -4.6858    0.6320 C   0  0
   22.1621   -5.9112   -0.0745 C   0  0
   21.6884   -5.8677   -1.3955 C   0  0
   21.2134   -7.0166   -2.0279 C   0  0
   21.2112   -8.2337   -1.3537 C   0  0
   21.6975   -8.3160   -0.0430 C   0  0
   22.1744   -7.1512    0.5855 C   0  0
   14.8807   -0.4812    1.0593 C   0  0
   13.8383   -1.4336    0.5167 C   0  0
   12.7125   -0.9116   -0.1418 C   0  0
   12.9410   -3.7055    0.2515 C   0  0
   13.9331   -2.8341    0.7182 C   0  0
   21.6720   -9.6249    0.7037 C   0  0
   20.6869   -9.6627    1.6421 F   0  0
   22.8383   -9.8791    1.3677 F   0  0
   21.4802  -10.7125   -0.0999 F   0  0
   11.8527   -3.1502   -0.3886 C   0  0
   11.7470   -1.7929   -0.5816 C   0  0
   10.6012   -1.4449   -1.2262 O   0  0
    9.9867   -2.7363   -1.4007 C   0  0
   10.7745   -3.8240   -0.8779 O   0  0
   18.1794   -3.5026    3.0303 H   0  0
   20.3201   -4.5820    2.3861 H   0  0
   18.7809   -0.4519    0.0518 H   0  0
   20.3644    0.0740   -1.6864 H   0  0
   21.5748   -0.7284   -2.6897 H   0  0
   22.0855    0.3308   -1.3577 H   0  0
   23.8166   -1.7371   -2.0264 H   0  0
   23.7907   -3.4982   -1.9039 H   0  0
   24.5251   -2.5190   -0.6117 H   0  0
   16.4982   -1.3188   -0.0436 H   0  0
   23.7626   -4.5534    0.3769 H   0  0
   22.6479   -4.7974    1.7210 H   0  0
   21.6540   -4.9308   -1.9484 H   0  0
   20.8268   -6.9554   -3.0427 H   0  0
   20.8161   -9.1172   -1.8530 H   0  0
   22.5482   -7.2183    1.6075 H   0  0
   14.6739   -0.2753    2.1143 H   0  0
   14.8577    0.4641    0.5067 H   0  0
   12.5806    0.1549   -0.2955 H   0  0
   13.0194   -4.7767    0.4068 H   0  0
   14.7850   -3.2527    1.2540 H   0  0
    9.0140   -2.7333   -0.8951 H   0  0
    9.8240   -2.9050   -2.4715 H   0  0
  1  2  2  0
  1 12  1  0
  2  3  1  0
  2 36  1  0
  3  6  2  0
  3 37  1  0
  4  1  1  0
  4 38  1  0
  5  4  2  0
  5  6  1  0
  6  7  1  0
  7  8  1  0
  7 15  1  0
  8  9  2  0
  8 11  1  0
  9  5  1  0
  9 10  1  0
 10 39  1  0
 10 40  1  0
 10 41  1  0
 11 42  1  0
 11 43  1  0
 11 44  1  0
 12 13  2  0
 12 14  1  0
 14 22  1  0
 14 45  1  0
 15 16  1  0
 15 46  1  0
 15 47  1  0
 16 17  2  0
 17 18  1  0
 17 48  1  0
 18 19  2  0
 18 49  1  0
 19 20  1  0
 19 50  1  0
 20 21  2  0
 20 27  1  0
 21 16  1  0
 21 51  1  0
 22 23  1  0
 22 52  1  0
 22 53  1  0
 23 24  2  0
 24 32  1  0
 24 54  1  0
 25 26  2  0
 25 55  1  0
 26 23  1  0
 26 56  1  0
 27 28  1  0
 27 29  1  0
 27 30  1  0
 31 25  1  0
 31 32  2  0
 32 33  1  0
 33 34  1  0
 34 35  1  0
 34 57  1  0
 34 58  1  0
 35 31  1  0
M  END
> <Name>
CHEMBL4591564

> <Clean Energy>
59.860901

> <chembl_id>
CHEMBL4591564

> <chembl_pref_name>
None

> <efficacy>
0.32

> <Forcefield>
MMFF

> <ForcefieldBase>
MMFF

> <ForcefieldFFML>
<?xml version="1.0" encoding="UTF-8"?>
<!DOCTYPE ffml SYSTEM "Ffml.dtd">
<ffml version="1.0">
<forcefield name="MMFF" derivedFrom="MMFF" base="MMFF">
<atomTypes>
<atomType
name="C100"
element="C"
mass="12.011"
annotation=""/>
<atomType
name="N101"
element="N"
mass="14.007"
annotation=""/>
<atomType
name="O102"
element="O"
mass="16"
annotation=""/>
<atomType
name="F103"
element="F"
mass="18.998"
annotation=""/>
<atomType
name="H104"
element="H"
mass="1.008"
annotation=""/>
</atomTypes>
<parameters>
</parameters>
</forcefield>
</ffml>

> <Initial Potential Energy>
337.89824

> <Initial RMS Gradient>
97.44798

> <Minimization Criteria>
CONJUG> Minimization exiting with gradient tolerance ( 0.0100000) satisfied.

> <CHARMm Energy>
75.99483

> <Potential Energy>
75.99483

> <RMS Gradient>
0.00941

> <Bond Energy>
7.38103

> <Angle Energy>
9.61063

> <STRBend>
-0.07985

> <Dihedral Energy>
5.05339

> <OOPLane>
0.14489

> <Van der Waals Energy>
57.46136

> <Electrostatic Energy>
-3.57662

> <Hydrogen Bond Energy>
0

> <Solvation Free Energy>
0

> <HasGasteigerCharges>
true

> <REMARK99>
REMARK  99  MacroMolecule created from Mol2 file
REMARK  99  CHEMBL4591564
REMARK  99  PROTEIN
REMARK  99  GASTEIGER
REMARK  99
REMARK  99

$$$$
CHEMBL5080856
  SciTegic05292516403D

 53 56  0  0  0  0            999 V2000
   29.6500  -24.5288    2.4363 F   0  0
   30.7643  -23.9976    1.8491 C   0  0
   31.7768  -24.2157    2.7324 F   0  0
   29.9114  -25.0443   -0.2478 C   0  0
   30.0235  -25.5494   -1.5407 C   0  0
   31.2701  -25.5640   -2.1535 C   0  0
   32.3963  -25.0977   -1.4764 C   0  0
   32.3205  -24.6206   -0.1500 C   0  0
   31.0441  -24.5741    0.4682 C   0  0
   30.5526  -22.6520    1.8238 F   0  0
   33.6094  -24.1134    0.4861 C   0  0
   34.7521  -24.9940    0.2437 N   0  0
   36.0510  -24.5169    0.3090 C   0  0
   37.1943  -25.4558    0.0267 C   0  0
   36.2971  -23.3454    0.5818 O   0  0
   37.0161  -26.8340   -0.2503 C   0  0
   38.1121  -27.6738   -0.5238 C   0  0
   38.5010  -24.9137    0.0313 C   0  0
   39.5600  -25.7588   -0.2422 C   0  0
   39.3717  -27.1118   -0.5157 C   0  0
   40.6331  -27.6757   -0.7595 N   0  0
   41.6259  -26.6757   -0.6309 C   0  0
   40.9301  -25.4890   -0.3104 N   0  0
   42.8340  -26.7886   -0.7638 O   0  0
   40.9175  -29.0470   -1.0961 C   0  0
   40.9548  -29.9523    0.1117 C   0  0
   41.9364  -29.7800    1.1037 C   0  0
   41.9619  -30.6030    2.2312 C   0  0
   41.0121  -31.6114    2.3755 C   0  0
   40.0525  -31.7959    1.3875 C   0  0
   40.0168  -30.9833    0.2594 C   0  0
   29.0075  -26.0428   -2.3070 O   0  0
   27.7062  -26.0540   -1.7320 C   0  0
   39.1705  -32.7970    1.5077 F   0  0
   28.9377  -24.9955    0.2372 H   0  0
   31.3544  -25.9350   -3.1731 H   0  0
   33.3522  -25.1080   -2.0003 H   0  0
   33.8271  -23.1153    0.0886 H   0  0
   33.5356  -24.0269    1.5696 H   0  0
   34.5572  -25.9721    0.1043 H   0  0
   36.0299  -27.2861   -0.2592 H   0  0
   37.9636  -28.7270   -0.7314 H   0  0
   38.6711  -23.8617    0.2401 H   0  0
   41.4109  -24.6124   -0.1693 H   0  0
   40.1749  -29.3901   -1.8262 H   0  0
   41.8933  -29.0999   -1.5947 H   0  0
   42.6886  -28.9983    1.0007 H   0  0
   42.7309  -30.4657    2.9885 H   0  0
   41.0271  -32.2645    3.2419 H   0  0
   39.2644  -31.1765   -0.4987 H   0  0
   27.0198  -26.4865   -2.4662 H   0  0
   27.3637  -25.0372   -1.5134 H   0  0
   27.6756  -26.6829   -0.8361 H   0  0
  2  1  1  0
  2 10  1  0
  3  2  1  0
  4  5  2  0
  4 35  1  0
  5  6  1  0
  5 32  1  0
  6  7  2  0
  6 36  1  0
  7  8  1  0
  7 37  1  0
  8  9  2  0
  8 11  1  0
  9  2  1  0
  9  4  1  0
 11 12  1  0
 11 38  1  0
 11 39  1  0
 12 13  1  0
 12 40  1  0
 13 14  1  0
 13 15  2  0
 14 16  2  0
 16 17  1  0
 16 41  1  0
 17 20  2  0
 17 42  1  0
 18 14  1  0
 18 43  1  0
 19 18  2  0
 19 20  1  0
 20 21  1  0
 21 22  1  0
 21 25  1  0
 22 23  1  0
 22 24  2  0
 23 19  1  0
 23 44  1  0
 25 26  1  0
 25 45  1  0
 25 46  1  0
 26 27  2  0
 27 28  1  0
 27 47  1  0
 28 29  2  0
 28 48  1  0
 29 30  1  0
 29 49  1  0
 30 31  2  0
 30 34  1  0
 31 26  1  0
 31 50  1  0
 32 33  1  0
 33 51  1  0
 33 52  1  0
 33 53  1  0
M  END
> <Name>
CHEMBL5080856

> <Clean Energy>
51.768002

> <chembl_id>
CHEMBL5080856

> <chembl_pref_name>
None

> <efficacy>
0.113960114

> <Forcefield>
MMFF

> <ForcefieldBase>
MMFF

> <ForcefieldFFML>
<?xml version="1.0" encoding="UTF-8"?>
<!DOCTYPE ffml SYSTEM "Ffml.dtd">
<ffml version="1.0">
<forcefield name="MMFF" derivedFrom="MMFF" base="MMFF">
<atomTypes>
<atomType
name="F100"
element="F"
mass="18.998"
annotation=""/>
<atomType
name="C101"
element="C"
mass="12.011"
annotation=""/>
<atomType
name="N102"
element="N"
mass="14.007"
annotation=""/>
<atomType
name="O103"
element="O"
mass="16"
annotation=""/>
<atomType
name="H104"
element="H"
mass="1.008"
annotation=""/>
</atomTypes>
<parameters>
</parameters>
</forcefield>
</ffml>

> <Initial Potential Energy>
430.69031

> <Initial RMS Gradient>
241.27816

> <Minimization Criteria>
STEEPD> Minimization exiting with gradient tolerance ( 3.0000000) satisfied.

> <CHARMm Energy>
5.39956

> <Potential Energy>
5.39956

> <RMS Gradient>
0.03336

> <Bond Energy>
9.49963

> <Angle Energy>
35.80485

> <STRBend>
-1.90751

> <Dihedral Energy>
-1.25277

> <OOPLane>
0.07083

> <Van der Waals Energy>
59.58249

> <Electrostatic Energy>
-96.39796

> <Hydrogen Bond Energy>
0

> <Solvation Free Energy>
0

> <HasGasteigerCharges>
true

> <REMARK99>
REMARK  99  MacroMolecule created from Mol2 file
REMARK  99  CHEMBL5080856
REMARK  99  PROTEIN
REMARK  99  GASTEIGER
REMARK  99
REMARK  99

$$$$
CHEMBL5081786
  SciTegic05292516403D

 49 52  0  0  0  0            999 V2000
   -0.1331   -8.2603   -1.3666 F   0  0
   -0.1785   -9.5957   -1.6303 C   0  0
    0.8986   -9.8692   -2.4194 F   0  0
   -1.2454  -11.3475   -0.1654 C   0  0
   -1.3096  -12.1324    0.9861 C   0  0
   -0.3186  -12.0240    1.9539 C   0  0
    0.7396  -11.1372    1.7668 C   0  0
    0.8290  -10.3430    0.6057 C   0  0
   -0.1884  -10.4389   -0.3714 C   0  0
   -1.2778   -9.7712   -2.4208 F   0  0
    2.0238   -9.4263    0.4658 C   0  0
    3.2455  -10.1972    0.4294 N   0  0
    4.4697   -9.6024    0.6313 C   0  0
    5.6460  -10.5148    0.6076 C   0  0
    4.6142   -8.3971    0.7970 O   0  0
    5.5627  -11.8305    1.0763 C   0  0
    6.6744  -12.6814    1.0400 C   0  0
    6.8591  -10.0137    0.1170 C   0  0
    7.9849  -10.8584    0.0614 C   0  0
    7.8759  -12.1752    0.5191 C   0  0
    9.1111  -12.7699    0.3263 N   0  0
    9.9905  -11.8611   -0.2121 C   0  0
    9.3183  -10.6754   -0.3919 C   0  0
    9.4628  -14.1530    0.6544 C   0  0
    8.7982  -15.1858   -0.2335 C   0  0
    8.3673  -14.9188   -1.5440 C   0  0
    7.8115  -15.9272   -2.3391 C   0  0
    7.7199  -17.2286   -1.8520 C   0  0
    8.1649  -17.5090   -0.5668 C   0  0
    8.6778  -16.5005    0.2456 C   0  0
    8.1138  -18.7678   -0.1061 F   0  0
   -2.0356  -11.4452   -0.9090 H   0  0
   -2.1387  -12.8216    1.1295 H   0  0
   -0.3698  -12.6268    2.8573 H   0  0
    1.5076  -11.0636    2.5366 H   0  0
    1.9974   -8.8243   -0.4456 H   0  0
    2.0551   -8.7288    1.3114 H   0  0
    3.1957  -11.1648    0.1410 H   0  0
    4.6363  -12.2110    1.4986 H   0  0
    6.5969  -13.7028    1.3999 H   0  0
    6.9282   -8.9859   -0.2309 H   0  0
   11.0161  -12.1318   -0.4290 H   0  0
    9.7270   -9.7660   -0.8108 H   0  0
   10.5514  -14.2521    0.5759 H   0  0
    9.1770  -14.2982    1.7030 H   0  0
    8.4433  -13.9167   -1.9662 H   0  0
    7.4621  -15.6900   -3.3420 H   0  0
    7.3303  -18.0317   -2.4692 H   0  0
    8.9972  -16.7576    1.2506 H   0  0
  2  1  1  0
  2 10  1  0
  3  2  1  0
  4  5  2  0
  4 32  1  0
  5  6  1  0
  5 33  1  0
  6  7  2  0
  6 34  1  0
  7  8  1  0
  7 35  1  0
  8  9  2  0
  8 11  1  0
  9  2  1  0
  9  4  1  0
 11 12  1  0
 11 36  1  0
 11 37  1  0
 12 13  1  0
 12 38  1  0
 13 14  1  0
 13 15  2  0
 14 16  2  0
 16 17  1  0
 16 39  1  0
 17 20  2  0
 17 40  1  0
 18 14  1  0
 18 41  1  0
 19 18  2  0
 19 20  1  0
 20 21  1  0
 21 22  1  0
 21 24  1  0
 22 23  2  0
 22 42  1  0
 23 19  1  0
 23 43  1  0
 24 25  1  0
 24 44  1  0
 24 45  1  0
 25 26  2  0
 26 27  1  0
 26 46  1  0
 27 28  2  0
 27 47  1  0
 28 29  1  0
 28 48  1  0
 29 30  2  0
 29 31  1  0
 30 25  1  0
 30 49  1  0
M  END
> <Name>
CHEMBL5081786

> <Clean Energy>
47.327801

> <chembl_id>
CHEMBL5081786

> <chembl_pref_name>
None

> <efficacy>
0.142450142

> <Forcefield>
MMFF

> <ForcefieldBase>
MMFF

> <ForcefieldFFML>
<?xml version="1.0" encoding="UTF-8"?>
<!DOCTYPE ffml SYSTEM "Ffml.dtd">
<ffml version="1.0">
<forcefield name="MMFF" derivedFrom="MMFF" base="MMFF">
<atomTypes>
<atomType
name="F100"
element="F"
mass="18.998"
annotation=""/>
<atomType
name="C101"
element="C"
mass="12.011"
annotation=""/>
<atomType
name="N102"
element="N"
mass="14.007"
annotation=""/>
<atomType
name="O103"
element="O"
mass="16"
annotation=""/>
<atomType
name="H104"
element="H"
mass="1.008"
annotation=""/>
</atomTypes>
<parameters>
</parameters>
</forcefield>
</ffml>

> <Initial Potential Energy>
448.19004

> <Initial RMS Gradient>
217.19628

> <Minimization Criteria>
CONJUG> Minimization exiting with gradient tolerance ( 0.0100000) satisfied.

> <CHARMm Energy>
65.64116

> <Potential Energy>
65.64116

> <RMS Gradient>
0.00982

> <Bond Energy>
6.71806

> <Angle Energy>
5.5408

> <STRBend>
0.21383

> <Dihedral Energy>
1.788

> <OOPLane>
0.08936

> <Van der Waals Energy>
54.21826

> <Electrostatic Energy>
-2.92716

> <Hydrogen Bond Energy>
0

> <Solvation Free Energy>
0

> <HasGasteigerCharges>
true

> <REMARK99>
REMARK  99  MacroMolecule created from Mol2 file
REMARK  99  CHEMBL5081786
REMARK  99  PROTEIN
REMARK  99  GASTEIGER
REMARK  99
REMARK  99

$$$$
CHEMBL3397563
  SciTegic05292516403D

 55 57  0  0  0  0            999 V2000
    2.3096   -3.2149    2.0893 C   0  0
    2.2862   -2.8971    0.5855 C   0  0  2  0  0  0
    3.5343   -3.4630   -0.1076 C   0  0
    2.4506   -2.3792    2.9730 O   0  0
    2.1213   -4.5270    2.3848 O   0  0
    2.3409   -1.4729    0.3759 O   0  0
    1.1047   -0.9025    0.2547 C   0  0
    0.6295   -0.1218    1.3087 C   0  0
   -0.5863    0.5502    1.1806 C   0  0
   -1.3040    0.4465   -0.0151 C   0  0
   -0.8257   -0.3340   -1.0739 C   0  0
    0.3911   -1.0043   -0.9404 C   0  0
   -2.5681    1.2116   -0.1833 C   0  0
   -2.4808    2.7062   -0.3152 C   0  0
   -1.2710    3.3546   -0.6021 C   0  0
   -1.2268    4.7471   -0.7232 C   0  0
   -2.3882    5.5012   -0.5669 C   0  0
   -3.5969    4.8652   -0.2886 C   0  0
   -3.6444    3.4745   -0.1640 C   0  0
   -3.7436    0.6477   -0.2238 N   0  0
   -3.6646   -0.7454   -0.0633 O   0  0
   -4.9893   -1.2754   -0.0699 C   0  0
   -4.9002   -2.7854    0.1044 C   0  0
   -6.2718   -3.4356    0.1091 C   0  0
    3.4352   -4.9315   -0.4446 C   0  0
    4.2375   -5.8686    0.2212 C   0  0
    4.1340   -7.2267   -0.0799 C   0  0
    3.2324   -7.6596   -1.0502 C   0  0
    2.4350   -6.7357   -1.7227 C   0  0
    2.5362   -5.3764   -1.4240 C   0  0
    1.3632   -3.3164    0.1642 H   0  0
    3.7217   -2.9194   -1.0440 H   0  0
    4.4226   -3.2753    0.5105 H   0  0
    1.9610   -5.0974    1.6070 H   0  0
    1.2086   -0.0333    2.2254 H   0  0
   -0.9621    1.1583    2.0001 H   0  0
   -1.3932   -0.4029   -1.9984 H   0  0
    0.7856   -1.5794   -1.7722 H   0  0
   -0.3491    2.7962   -0.7447 H   0  0
   -0.2813    5.2370   -0.9422 H   0  0
   -2.3570    6.5854   -0.6632 H   0  0
   -4.5048    5.4538   -0.1687 H   0  0
   -4.5949    2.9931    0.0549 H   0  0
   -5.5624   -0.8286    0.7508 H   0  0
   -5.4739   -1.0280   -1.0216 H   0  0
   -4.2881   -3.2127   -0.6990 H   0  0
   -4.3750   -3.0172    1.0388 H   0  0
   -6.1780   -4.5186    0.2367 H   0  0
   -6.7978   -3.2489   -0.8326 H   0  0
   -6.8863   -3.0492    0.9285 H   0  0
    4.9494   -5.5467    0.9799 H   0  0
    4.7634   -7.9495    0.4359 H   0  0
    3.1610   -8.7182   -1.2901 H   0  0
    1.7414   -7.0749   -2.4884 H   0  0
    1.9161   -4.6670   -1.9701 H   0  0
  1  2  1  0
  1  4  2  0
  1  5  1  0
  2  3  1  0
  2  6  1  0
  2 31  1  0
  3 25  1  0
  3 32  1  0
  3 33  1  0
  5 34  1  0
  6  7  1  0
  7  8  1  0
  7 12  2  0
  8  9  2  0
  8 35  1  0
  9 10  1  0
  9 36  1  0
 10 11  2  0
 10 13  1  0
 11 12  1  0
 11 37  1  0
 12 38  1  0
 13 14  1  0
 13 20  2  0
 14 15  1  0
 14 19  2  0
 15 16  2  0
 15 39  1  0
 16 17  1  0
 16 40  1  0
 17 18  2  0
 17 41  1  0
 18 19  1  0
 18 42  1  0
 19 43  1  0
 20 21  1  0
 21 22  1  0
 22 23  1  0
 22 44  1  0
 22 45  1  0
 23 24  1  0
 23 46  1  0
 23 47  1  0
 24 48  1  0
 24 49  1  0
 24 50  1  0
 25 26  1  0
 25 30  2  0
 26 27  2  0
 26 51  1  0
 27 28  1  0
 27 52  1  0
 28 29  2  0
 28 53  1  0
 29 30  1  0
 29 54  1  0
 30 55  1  0
M  END
> <Name>
CHEMBL3397563

> <Clean Energy>
20.9596

> <chembl_id>
CHEMBL3397563

> <chembl_pref_name>
None

> <efficacy>
0.19

> <Forcefield>
MMFF

> <ForcefieldBase>
MMFF

> <ForcefieldFFML>
<?xml version="1.0" encoding="UTF-8"?>
<!DOCTYPE ffml SYSTEM "Ffml.dtd">
<ffml version="1.0">
<forcefield name="MMFF" derivedFrom="MMFF" base="MMFF">
<atomTypes>
<atomType
name="C100"
element="C"
mass="12.011"
annotation=""/>
<atomType
name="O101"
element="O"
mass="16"
annotation=""/>
<atomType
name="N102"
element="N"
mass="14.007"
annotation=""/>
<atomType
name="H103"
element="H"
mass="1.008"
annotation=""/>
</atomTypes>
<parameters>
</parameters>
</forcefield>
</ffml>

> <Initial Potential Energy>
224.41548

> <Initial RMS Gradient>
31.82239

> <Minimization Criteria>
CONJUG> Minimization exiting with gradient tolerance ( 0.0100000) satisfied.

> <CHARMm Energy>
111.50978

> <Potential Energy>
111.50978

> <RMS Gradient>
0.00979

> <Bond Energy>
6.27946

> <Angle Energy>
9.1601

> <STRBend>
1.25237

> <Dihedral Energy>
11.64934

> <OOPLane>
0.10607

> <Van der Waals Energy>
60.44494

> <Electrostatic Energy>
22.61751

> <Hydrogen Bond Energy>
0

> <Solvation Free Energy>
0

> <HasGasteigerCharges>
true

> <REMARK99>
REMARK  99  MacroMolecule created from Mol2 file
REMARK  99  CHEMBL3397563
REMARK  99  PROTEIN
REMARK  99  GASTEIGER
REMARK  99
REMARK  99

$$$$
CHEMBL2206305
  SciTegic05292516403D

 73 76  0  0  0  0            999 V2000
    8.9936  -13.1559    0.1612 C   0  0  1  0  0  0
   -1.9993  -19.0049   -1.6820 C   0  0
   -1.8799  -20.3666   -1.9832 C   0  0
   -0.8019  -21.1252   -1.5051 C   0  0
   -1.0408  -18.3448   -0.9024 C   0  0
    0.0192  -19.1274   -0.4586 C   0  0
    0.1623  -20.4781   -0.7235 C   0  0
    1.2981  -20.9507   -0.1263 N   0  0
    1.8083  -19.8969    0.4699 C   0  0
    1.0934  -18.7387    0.2930 O   0  0
    2.9443  -19.8322    1.2028 N   0  0
    3.6203  -18.5467    1.5029 C   0  0
    4.2416  -17.8659    0.2560 C   0  0
    5.1953  -16.6874    0.4769 C   0  0
    6.3148  -16.5364   -0.3611 C   0  0
    7.1908  -15.4311   -0.2571 C   0  0
    6.9769  -14.4303    0.6905 C   0  0
    5.8514  -14.5653    1.5165 C   0  0
    4.9704  -15.6704    1.4116 C   0  0
    7.7593  -13.3088    0.9044 O   0  0
    9.4977  -11.6770    0.1640 C   0  0
    9.2673  -10.9871    1.3091 O   0  0
   10.1061  -11.1482   -0.7622 O   0  0
    3.5697  -21.0914    1.6098 C   0  0
    4.5952  -21.5570    0.5742 C   0  0
    5.2093  -22.9021    0.9658 C   0  0
    6.2363  -23.3667   -0.0695 C   0  0
    6.8532  -24.7102    0.3257 C   0  0
    7.8071  -25.2728   -0.7301 C   0  0
    9.0568  -24.4296   -0.9311 C   0  0
   10.0837  -14.0379    0.8054 C   0  0
   11.4212  -14.1886    0.1129 C   0  0
   12.5144  -14.6373    0.8775 C   0  0
   13.7724  -14.8153    0.3008 C   0  0
   13.9553  -14.5562   -1.0535 C   0  0
   12.8848  -14.1194   -1.8286 C   0  0
   11.6233  -13.9451   -1.2522 C   0  0
    8.8053  -13.3931   -0.8914 H   0  0
   -2.8554  -18.4488   -2.0614 H   0  0
   -2.6381  -20.8483   -2.5956 H   0  0
   -0.7132  -22.1825   -1.7296 H   0  0
   -1.1274  -17.2948   -0.6581 H   0  0
    2.9086  -17.8658    1.9862 H   0  0
    4.4142  -18.7212    2.2401 H   0  0
    4.7805  -18.6348   -0.3119 H   0  0
    3.4383  -17.5124   -0.4025 H   0  0
    6.5194  -17.2835   -1.1280 H   0  0
    8.0271  -15.4019   -0.9481 H   0  0
    5.6382  -13.7970    2.2573 H   0  0
    4.0988  -15.7023    2.0633 H   0  0
    8.7412  -11.4912    1.9575 H   0  0
    4.0635  -20.9558    2.5802 H   0  0
    2.8123  -21.8696    1.7715 H   0  0
    4.1216  -21.6425   -0.4114 H   0  0
    5.3904  -20.8082    0.4790 H   0  0
    5.6908  -22.8142    1.9473 H   0  0
    4.4163  -23.6539    1.0597 H   0  0
    5.7529  -23.4584   -1.0496 H   0  0
    7.0200  -22.6066   -0.1629 H   0  0
    7.3814  -24.6082    1.2816 H   0  0
    6.0502  -25.4405    0.4852 H   0  0
    8.1129  -26.2793   -0.4203 H   0  0
    7.2829  -25.3818   -1.6867 H   0  0
    9.7405  -24.9310   -1.6237 H   0  0
    9.5850  -24.2777    0.0154 H   0  0
    8.8166  -23.4503   -1.3553 H   0  0
   10.2655  -13.6486    1.8178 H   0  0
    9.6956  -15.0526    0.9568 H   0  0
   12.3883  -14.8503    1.9375 H   0  0
   14.6155  -15.1437    0.9054 H   0  0
   14.9368  -14.6822   -1.5042 H   0  0
   13.0396  -13.8997   -2.8833 H   0  0
   10.8199  -13.5960   -1.8954 H   0  0
  1 21  1  0
  1 31  1  0
  1 38  1  0
  2  3  2  0
  2 39  1  0
  3  4  1  0
  3 40  1  0
  4  7  2  0
  4 41  1  0
  5  2  1  0
  5 42  1  0
  6  5  2  0
  6  7  1  0
  7  8  1  0
  8  9  2  0
  9 10  1  0
  9 11  1  0
 10  6  1  0
 11 12  1  0
 11 24  1  0
 12 13  1  0
 12 43  1  0
 12 44  1  0
 13 14  1  0
 13 45  1  0
 13 46  1  0
 14 15  2  0
 15 16  1  0
 15 47  1  0
 16 17  2  0
 16 48  1  0
 17 18  1  0
 17 20  1  0
 18 19  2  0
 18 49  1  0
 19 14  1  0
 19 50  1  0
 20  1  1  0
 21 22  1  0
 21 23  2  0
 22 51  1  0
 24 25  1  0
 24 52  1  0
 24 53  1  0
 25 26  1  0
 25 54  1  0
 25 55  1  0
 26 27  1  0
 26 56  1  0
 26 57  1  0
 27 28  1  0
 27 58  1  0
 27 59  1  0
 28 29  1  0
 28 60  1  0
 28 61  1  0
 29 30  1  0
 29 62  1  0
 29 63  1  0
 30 64  1  0
 30 65  1  0
 30 66  1  0
 31 32  1  0
 31 67  1  0
 31 68  1  0
 32 33  2  0
 33 34  1  0
 33 69  1  0
 34 35  2  0
 34 70  1  0
 35 36  1  0
 35 71  1  0
 36 37  2  0
 36 72  1  0
 37 32  1  0
 37 73  1  0
M  END
> <Name>
CHEMBL2206305

> <Clean Energy>
55.918499

> <chembl_id>
CHEMBL2206305

> <chembl_pref_name>
None

> <efficacy>
0.23

> <Forcefield>
MMFF

> <ForcefieldBase>
MMFF

> <ForcefieldFFML>
<?xml version="1.0" encoding="UTF-8"?>
<!DOCTYPE ffml SYSTEM "Ffml.dtd">
<ffml version="1.0">
<forcefield name="MMFF" derivedFrom="MMFF" base="MMFF">
<atomTypes>
<atomType
name="C100"
element="C"
mass="12.011"
annotation=""/>
<atomType
name="N101"
element="N"
mass="14.007"
annotation=""/>
<atomType
name="O102"
element="O"
mass="16"
annotation=""/>
<atomType
name="H103"
element="H"
mass="1.008"
annotation=""/>
</atomTypes>
<parameters>
</parameters>
</forcefield>
</ffml>

> <Initial Potential Energy>
132.8437

> <Initial RMS Gradient>
25.69744

> <Minimization Criteria>
STEEPD> Minimization exiting with gradient tolerance ( 3.0000000) satisfied.

> <CHARMm Energy>
39.21616

> <Potential Energy>
39.21616

> <RMS Gradient>
0.012

> <Bond Energy>
10.04325

> <Angle Energy>
21.96358

> <STRBend>
1.5358

> <Dihedral Energy>
-11.28233

> <OOPLane>
0.14624

> <Van der Waals Energy>
62.67578

> <Electrostatic Energy>
-45.86615

> <Hydrogen Bond Energy>
0

> <Solvation Free Energy>
0

> <HasGasteigerCharges>
true

> <REMARK99>
REMARK  99  MacroMolecule created from Mol2 file
REMARK  99  CHEMBL2206305
REMARK  99  PROTEIN
REMARK  99  GASTEIGER
REMARK  99
REMARK  99

$$$$
CHEMBL4586093
  SciTegic05292516403D

 63 66  0  0  0  0            999 V2000
    7.0060  -10.9025   -1.9225 C   0  0
    7.7919  -11.8462   -2.5783 C   0  0
    9.0327  -12.2290   -2.0515 C   0  0
    7.4558  -10.2964   -0.7407 C   0  0
    8.7219  -10.6333   -0.2179 C   0  0
    9.4841  -11.6022   -0.8736 C   0  0
   10.6511  -11.7561   -0.1421 N   0  0
   10.6962  -10.8262    0.8817 C   0  0
    9.4793  -10.1620    0.8984 C   0  0
    9.0634   -9.1143    1.8702 C   0  0
   11.8830  -10.6400    1.7672 C   0  0
    5.6907  -10.5117   -2.4918 C   0  0
    5.5629  -10.2465   -3.6799 O   0  0
    4.6594  -10.4818   -1.5834 N   0  0
   11.7009  -12.7292   -0.4497 C   0  0
   11.4280  -14.1064    0.1204 C   0  0
   10.9368  -14.2923    1.4222 C   0  0
   10.7279  -15.5712    1.9390 C   0  0
   11.0149  -16.6900    1.1645 C   0  0
   11.5283  -16.5405   -0.1297 C   0  0
   11.7348  -15.2461   -0.6408 C   0  0
    3.2936  -10.1602   -1.9579 C   0  0
    2.3658  -10.1942   -0.7636 C   0  0
    1.5891   -9.0606   -0.4598 C   0  0
    0.7324   -9.0603    0.6420 C   0  0
    0.6179  -10.2111    1.4193 C   0  0
    1.3706  -11.3510    1.1246 C   0  0
    2.2523  -11.3473    0.0430 C   0  0
   11.8256  -17.7480   -0.9822 C   0  0
   10.9325  -17.8789   -2.0023 F   0  0
   13.0632  -17.7024   -1.5575 F   0  0
   11.7999  -18.9281   -0.2947 F   0  0
    3.0394  -12.4106   -0.3184 O   0  0
   -0.0551   -8.0065    1.0235 O   0  0
    0.4739   -6.7234    0.6994 C   0  0
    3.1780  -13.4831    0.6064 C   0  0
    7.4356  -12.2979   -3.5019 H   0  0
    9.6292  -12.9795   -2.5607 H   0  0
    6.8550   -9.5390   -0.2501 H   0  0
    7.9998   -8.8750    1.7805 H   0  0
    9.6337   -8.1949    1.7032 H   0  0
    9.2390   -9.4503    2.8974 H   0  0
   11.6924   -9.8859    2.5369 H   0  0
   12.7445  -10.3016    1.1824 H   0  0
   12.1494  -11.5697    2.2774 H   0  0
    4.8141  -10.9313   -0.6875 H   0  0
   11.7919  -12.7629   -1.5415 H   0  0
   12.6545  -12.3558   -0.0637 H   0  0
   10.6967  -13.4411    2.0549 H   0  0
   10.3290  -15.6891    2.9440 H   0  0
   10.8397  -17.6828    1.5756 H   0  0
   12.1352  -15.1346   -1.6489 H   0  0
    3.3048   -9.1725   -2.4327 H   0  0
    2.9585  -10.8821   -2.7118 H   0  0
    1.6491   -8.1903   -1.1074 H   0  0
   -0.0632  -10.2196    2.2664 H   0  0
    1.2365  -12.2264    1.7518 H   0  0
   -0.0843   -5.9791    1.2758 H   0  0
    0.3245   -6.5001   -0.3616 H   0  0
    1.5303   -6.6353    0.9770 H   0  0
    3.9354  -14.1679    0.2132 H   0  0
    2.2398  -14.0391    0.6999 H   0  0
    3.5236  -13.1246    1.5816 H   0  0
  1  2  2  0
  1 12  1  0
  2  3  1  0
  2 37  1  0
  3  6  2  0
  3 38  1  0
  4  1  1  0
  4 39  1  0
  5  4  2  0
  5  6  1  0
  6  7  1  0
  7  8  1  0
  7 15  1  0
  8  9  2  0
  8 11  1  0
  9  5  1  0
  9 10  1  0
 10 40  1  0
 10 41  1  0
 10 42  1  0
 11 43  1  0
 11 44  1  0
 11 45  1  0
 12 13  2  0
 12 14  1  0
 14 22  1  0
 14 46  1  0
 15 16  1  0
 15 47  1  0
 15 48  1  0
 16 17  2  0
 17 18  1  0
 17 49  1  0
 18 19  2  0
 18 50  1  0
 19 20  1  0
 19 51  1  0
 20 21  2  0
 20 29  1  0
 21 16  1  0
 21 52  1  0
 22 23  1  0
 22 53  1  0
 22 54  1  0
 23 24  2  0
 24 25  1  0
 24 55  1  0
 25 26  2  0
 25 34  1  0
 26 27  1  0
 26 56  1  0
 27 28  2  0
 27 57  1  0
 28 23  1  0
 28 33  1  0
 29 30  1  0
 29 31  1  0
 29 32  1  0
 33 36  1  0
 34 35  1  0
 35 58  1  0
 35 59  1  0
 35 60  1  0
 36 61  1  0
 36 62  1  0
 36 63  1  0
M  END
> <Name>
CHEMBL4586093

> <Clean Energy>
45.712799

> <chembl_id>
CHEMBL4586093

> <chembl_pref_name>
None

> <efficacy>
0.27

> <Forcefield>
MMFF

> <ForcefieldBase>
MMFF

> <ForcefieldFFML>
<?xml version="1.0" encoding="UTF-8"?>
<!DOCTYPE ffml SYSTEM "Ffml.dtd">
<ffml version="1.0">
<forcefield name="MMFF" derivedFrom="MMFF" base="MMFF">
<atomTypes>
<atomType
name="C100"
element="C"
mass="12.011"
annotation=""/>
<atomType
name="N101"
element="N"
mass="14.007"
annotation=""/>
<atomType
name="O102"
element="O"
mass="16"
annotation=""/>
<atomType
name="F103"
element="F"
mass="18.998"
annotation=""/>
<atomType
name="H104"
element="H"
mass="1.008"
annotation=""/>
</atomTypes>
<parameters>
</parameters>
</forcefield>
</ffml>

> <Initial Potential Energy>
360.65302

> <Initial RMS Gradient>
105.36726

> <Minimization Criteria>
CONJUG> Minimization exiting with gradient tolerance ( 0.0100000) satisfied.

> <CHARMm Energy>
80.82213

> <Potential Energy>
80.82213

> <RMS Gradient>
0.00923

> <Bond Energy>
7.22753

> <Angle Energy>
16.19266

> <STRBend>
0.01393

> <Dihedral Energy>
7.53244

> <OOPLane>
0.24574

> <Van der Waals Energy>
67.45318

> <Electrostatic Energy>
-17.84335

> <Hydrogen Bond Energy>
0

> <Solvation Free Energy>
0

> <HasGasteigerCharges>
true

> <REMARK99>
REMARK  99  MacroMolecule created from Mol2 file
REMARK  99  CHEMBL4586093
REMARK  99  PROTEIN
REMARK  99  GASTEIGER
REMARK  99
REMARK  99

$$$$
CHEMBL1801736
  SciTegic05292516403D

 61 66  0  0  0  0            999 V2000
    3.1685  -11.1050   -0.5079 C   0  0
    3.7215   -9.8110   -0.3492 C   0  0
    3.9364  -12.3460   -0.6984 C   0  0
    5.1582   -9.4888   -0.3153 C   0  0
    5.7861   -8.9246   -1.4500 C   0  0
    5.8913   -9.6169    0.8771 C   0  0
    7.0994   -8.4438   -1.3939 C   0  0
    1.7606  -11.2337   -0.4872 C   0  0
    2.8433   -8.7133   -0.1872 C   0  0
    0.9159  -10.1339   -0.3246 C   0  0
    1.4598   -8.8696   -0.1762 C   0  0
    7.7809   -8.5225   -0.1889 C   0  0
    7.1959   -9.1421    0.9222 C   0  0
    8.1023   -9.0845    2.1137 C   0  0
    9.4465   -8.6931    1.4812 C   0  0
    9.1434   -7.9742    0.1484 C   0  0  2  0  0  0
    9.2545   -6.5192    0.2330 N   0  0
    8.8685   -4.3327    0.4463 N   0  0
   10.4632   -5.8776    0.0256 C   0  0
    8.3225   -5.5349    0.5328 C   0  0
   10.1873   -4.5297    0.1446 C   0  0
   12.6636   -5.5486   -0.3952 C   0  0
   11.6586   -6.4434   -0.2286 N   0  0
   11.2340   -3.6049   -0.0289 C   0  0
   12.5119   -4.1450   -0.3341 C   0  0
    6.8911   -5.7585    0.9116 C   0  0
   11.0010   -2.1270    0.1046 C   0  0
    6.2058   -4.4870    1.3990 C   0  0
    5.2810  -12.4477   -0.9375 N   0  0
    5.6472  -13.7285   -1.0632 N   0  0
    4.5274  -14.4197   -0.9202 N   0  0
    3.4588  -13.5850   -0.7015 N   0  0
   14.0078   -6.1733   -0.6641 C   0  0
   13.7044   -3.2350   -0.5094 C   0  0
    5.2238   -8.8091   -2.3770 H   0  0
    5.4256  -10.0274    1.7715 H   0  0
    7.5495   -7.9707   -2.2629 H   0  0
    1.3078  -12.2171   -0.6034 H   0  0
    3.2454   -7.7087   -0.0580 H   0  0
   -0.1613  -10.2692   -0.3140 H   0  0
    0.8237   -7.9993   -0.0471 H   0  0
    7.7615   -8.3192    2.8175 H   0  0
    8.1706  -10.0493    2.6249 H   0  0
   10.0654   -8.1074    2.1695 H   0  0
   10.0039   -9.6147    1.2611 H   0  0
    9.8532   -8.3078   -0.6192 H   0  0
    6.3327   -6.1290    0.0479 H   0  0
    6.8285   -6.4927    1.7173 H   0  0
   11.6901   -1.6950    0.8373 H   0  0
    9.9834   -1.9121    0.4464 H   0  0
   11.1381   -1.6331   -0.8624 H   0  0
    5.1690   -4.7006    1.6782 H   0  0
    6.1933   -3.7178    0.6193 H   0  0
    6.7150   -4.0731    2.2761 H   0  0
    5.9834  -11.7288   -1.0319 H   0  0
   14.3395   -5.9392   -1.6801 H   0  0
   13.9545   -7.2636   -0.5733 H   0  0
   14.7490   -5.8183    0.0586 H   0  0
   14.4131   -3.6363   -1.2399 H   0  0
   14.2153   -3.1050    0.4496 H   0  0
   13.4147   -2.2515   -0.8904 H   0  0
  1  2  1  0
  2  4  1  0
  3  1  1  0
  3 29  1  0
  4  5  2  0
  5  7  1  0
  5 35  1  0
  6  4  1  0
  6 13  2  0
  6 36  1  0
  7 12  2  0
  7 37  1  0
  8  1  2  0
  8 10  1  0
  8 38  1  0
  9  2  2  0
  9 39  1  0
 10 11  2  0
 10 40  1  0
 11  9  1  0
 11 41  1  0
 12 13  1  0
 13 14  1  0
 14 15  1  0
 14 42  1  0
 14 43  1  0
 15 16  1  0
 15 44  1  0
 15 45  1  0
 16 12  1  0
 16 17  1  0
 16 46  1  0
 17 19  1  0
 18 20  2  0
 18 21  1  0
 19 21  2  0
 19 23  1  0
 20 17  1  0
 21 24  1  0
 22 33  1  0
 23 22  2  0
 24 25  2  0
 25 22  1  0
 25 34  1  0
 26 20  1  0
 26 47  1  0
 26 48  1  0
 27 24  1  0
 27 49  1  0
 27 50  1  0
 27 51  1  0
 28 26  1  0
 28 52  1  0
 28 53  1  0
 28 54  1  0
 29 30  1  0
 29 55  1  0
 30 31  2  0
 31 32  1  0
 32  3  2  0
 33 56  1  0
 33 57  1  0
 33 58  1  0
 34 59  1  0
 34 60  1  0
 34 61  1  0
M  END
> <Name>
CHEMBL1801736

> <Clean Energy>
93.090103

> <chembl_id>
CHEMBL1801736

> <chembl_pref_name>
None

> <efficacy>
0.25

> <Forcefield>
MMFF

> <ForcefieldBase>
MMFF

> <ForcefieldFFML>
<?xml version="1.0" encoding="UTF-8"?>
<!DOCTYPE ffml SYSTEM "Ffml.dtd">
<ffml version="1.0">
<forcefield name="MMFF" derivedFrom="MMFF" base="MMFF">
<atomTypes>
<atomType
name="C100"
element="C"
mass="12.011"
annotation=""/>
<atomType
name="N101"
element="N"
mass="14.007"
annotation=""/>
<atomType
name="H102"
element="H"
mass="1.008"
annotation=""/>
</atomTypes>
<parameters>
</parameters>
</forcefield>
</ffml>

> <Initial Potential Energy>
254.92586

> <Initial RMS Gradient>
37.54003

> <Minimization Criteria>
CONJUG> Minimization exiting with gradient tolerance ( 0.0100000) satisfied.

> <CHARMm Energy>
92.89907

> <Potential Energy>
92.89907

> <RMS Gradient>
0.00969

> <Bond Energy>
9.2291

> <Angle Energy>
17.52167

> <STRBend>
-0.28937

> <Dihedral Energy>
6.29849

> <OOPLane>
0.19476

> <Van der Waals Energy>
59.93487

> <Electrostatic Energy>
0.00956

> <Hydrogen Bond Energy>
0

> <Solvation Free Energy>
0

> <HasGasteigerCharges>
true

> <REMARK99>
REMARK  99  MacroMolecule created from Mol2 file
REMARK  99  CHEMBL1801736
REMARK  99  PROTEIN
REMARK  99  GASTEIGER
REMARK  99
REMARK  99

$$$$
CHEMBL489507
  SciTegic05292516403D

 60 64  0  0  0  0            999 V2000
   -0.6056   -3.6442    0.1549 C   0  0
   -0.0115   -4.8174    0.4345 N   0  0
   -0.8867   -5.7373   -0.0415 N   0  0
   -2.0337   -5.2315   -0.5840 N   0  0
   -1.8658   -3.9049   -0.4510 C   0  0
   -0.6202   -7.1304   -0.0005 C   0  0
   -1.5516   -8.0490   -0.5097 C   0  0
   -1.2724   -9.4191   -0.4762 C   0  0
   -0.0697   -9.8744    0.0634 C   0  0
    0.8566   -8.9644    0.5733 C   0  0
    0.5855   -7.5948    0.5443 C   0  0
   -2.9419   -2.9391   -0.8406 C   0  0
   -3.8467   -3.3523   -1.9824 C   0  0
   -3.8033   -4.6466   -2.3628 O   0  0
   -4.6341   -2.5842   -2.5235 O   0  0
    1.1260   10.3745   -0.5248 C   0  0
    2.1715   11.0472   -1.1520 C   0  0
    3.3750   10.3899   -1.3981 C   0  0
    3.5327    9.0549   -1.0172 C   0  0
    2.4897    8.3602   -0.3856 C   0  0
    1.2857    9.0396   -0.1442 C   0  0
    2.6314    6.9671    0.0259 C   0  0
    3.8438    6.3715   -0.2063 O   0  0
    3.7203    5.1111    0.3045 C   0  0
    2.4334    4.9689    0.7841 C   0  0
    1.7537    6.1644    0.6033 N   0  0
    4.9266    4.2663    0.2601 C   0  0
    1.8148    3.8221    1.5145 C   0  0
    1.5674    2.5507    0.6888 C   0  0
    1.2390    1.5048    1.6165 O   0  0
    0.8682    0.2719    1.1515 C   0  0
    0.7081   -0.1035   -0.1802 C   0  0
    0.2612   -1.3997   -0.5067 C   0  0
   -0.0261   -2.3427    0.4931 C   0  0
    0.1799   -1.9798    1.8266 C   0  0
    0.6144   -0.6817    2.1472 C   0  0
   -2.4974   -7.7224   -0.9356 H   0  0
   -1.9927  -10.1329   -0.8715 H   0  0
    0.1463  -10.9405    0.0870 H   0  0
    1.7946   -9.3166    0.9950 H   0  0
    1.3259   -6.9076    0.9467 H   0  0
   -3.5800   -2.7623    0.0330 H   0  0
   -2.4876   -1.9874   -1.1350 H   0  0
   -3.2011   -5.1939   -1.8012 H   0  0
    0.1870   10.8858   -0.3301 H   0  0
    2.0480   12.0851   -1.4481 H   0  0
    4.1927   10.9142   -1.8846 H   0  0
    4.4808    8.5608   -1.2189 H   0  0
    0.4611    8.5267    0.3480 H   0  0
    5.0656    3.8566   -0.7447 H   0  0
    4.8479    3.4313    0.9626 H   0  0
    5.8172    4.8454    0.5232 H   0  0
    2.4562    3.5735    2.3707 H   0  0
    0.8635    4.1421    1.9580 H   0  0
    0.7399    2.7218   -0.0101 H   0  0
    2.4671    2.2669    0.1313 H   0  0
    0.9046    0.5910   -0.9902 H   0  0
    0.1314   -1.6562   -1.5565 H   0  0
   -0.0195   -2.6918    2.6268 H   0  0
    0.7433   -0.4019    3.1920 H   0  0
  1  2  2  0
  2  3  1  0
  3  4  1  0
  3  6  1  0
  4  5  2  0
  5  1  1  0
  5 12  1  0
  6  7  2  0
  7  8  1  0
  7 37  1  0
  8  9  2  0
  8 38  1  0
  9 10  1  0
  9 39  1  0
 10 11  2  0
 10 40  1  0
 11  6  1  0
 11 41  1  0
 12 13  1  0
 12 42  1  0
 12 43  1  0
 13 14  1  0
 13 15  2  0
 14 44  1  0
 16 17  2  0
 16 45  1  0
 17 18  1  0
 17 46  1  0
 18 19  2  0
 18 47  1  0
 19 20  1  0
 19 48  1  0
 20 21  2  0
 20 22  1  0
 21 16  1  0
 21 49  1  0
 22 23  1  0
 23 24  1  0
 24 25  2  0
 24 27  1  0
 25 26  1  0
 25 28  1  0
 26 22  2  0
 27 50  1  0
 27 51  1  0
 27 52  1  0
 28 29  1  0
 28 53  1  0
 28 54  1  0
 29 30  1  0
 29 55  1  0
 29 56  1  0
 30 31  1  0
 31 32  2  0
 32 33  1  0
 32 57  1  0
 33 34  2  0
 33 58  1  0
 34  1  1  0
 34 35  1  0
 35 36  2  0
 35 59  1  0
 36 31  1  0
 36 60  1  0
M  END
> <Name>
CHEMBL489507

> <Clean Energy>
45.8736

> <chembl_id>
CHEMBL489507

> <chembl_pref_name>
None

> <efficacy>
0.2

> <Forcefield>
MMFF

> <ForcefieldBase>
MMFF

> <ForcefieldFFML>
<?xml version="1.0" encoding="UTF-8"?>
<!DOCTYPE ffml SYSTEM "Ffml.dtd">
<ffml version="1.0">
<forcefield name="MMFF" derivedFrom="MMFF" base="MMFF">
<atomTypes>
<atomType
name="C100"
element="C"
mass="12.011"
annotation=""/>
<atomType
name="N101"
element="N"
mass="14.007"
annotation=""/>
<atomType
name="O102"
element="O"
mass="16"
annotation=""/>
<atomType
name="H103"
element="H"
mass="1.008"
annotation=""/>
</atomTypes>
<parameters>
</parameters>
</forcefield>
</ffml>

> <Initial Potential Energy>
192.79246

> <Initial RMS Gradient>
34.3731

> <Minimization Criteria>
STEEPD> Minimization exiting with gradient tolerance ( 3.0000000) satisfied.

> <CHARMm Energy>
100.03123

> <Potential Energy>
100.03123

> <RMS Gradient>
0.14033

> <Bond Energy>
7.31648

> <Angle Energy>
16.85381

> <STRBend>
0.70139

> <Dihedral Energy>
2.80676

> <OOPLane>
0.2022

> <Van der Waals Energy>
62.52208

> <Electrostatic Energy>
9.6285

> <Hydrogen Bond Energy>
0

> <Solvation Free Energy>
0

> <HasGasteigerCharges>
true

> <REMARK99>
REMARK  99  MacroMolecule created from Mol2 file
REMARK  99  CHEMBL489507
REMARK  99  PROTEIN
REMARK  99  GASTEIGER
REMARK  99
REMARK  99

$$$$
CHEMBL2331775
  SciTegic05292516403D

 47 49  0  0  0  0            999 V2000
    7.7010  -14.6104    0.3077 C   0  0
    6.3909  -13.9953    0.0000 C   0  0
    5.3993  -14.7146   -0.6705 C   0  0
    4.1754  -14.1022   -0.9654 C   0  0
    3.9185  -12.8018   -0.5307 C   0  0
    4.8910  -12.0968    0.1776 C   0  0
    6.1268  -12.6931    0.4455 C   0  0
    7.7655  -15.7020    0.8573 O   0  0
    8.8000  -13.8638   -0.0659 N   0  0
   10.1522  -14.3573    0.1151 C   0  0
   11.1425  -13.2161    0.2412 C   0  0
    3.9395   -9.5860   -0.1795 S   0  0
    4.6401  -10.8124    0.7326 N   0  0
    2.1918   -9.7594    0.0771 C   0  0
    1.3214   -9.3753   -0.9501 C   0  0
   -0.0599   -9.4687   -0.7574 C   0  0
   -0.5626   -9.9643    0.4528 C   0  0
    0.3169  -10.3544    1.4708 C   0  0
    1.6972  -10.2491    1.2887 C   0  0
    5.6305  -16.0122   -1.0735 O   0  0
    4.6846  -17.1454    0.8475 C   0  0
    4.7621  -16.9253   -0.5255 C   0  0
    3.9257  -17.6430   -1.3735 C   0  0
    2.9916  -18.5007   -0.8095 C   0  0
    2.9468  -18.6218    0.5739 C   0  0
    3.7857  -17.9790    1.4210 N   0  0
    1.9126  -19.3905   -1.8054 Cl  0  0
    4.2163   -9.8180   -1.5794 O   0  0
    4.3157   -8.3575    0.4819 O   0  0
   -1.0916   -8.9391   -2.0406 Cl  0  0
   -2.2559  -10.1092    0.7597 Cl  0  0
    3.4083  -14.6373   -1.5199 H   0  0
    2.9459  -12.3724   -0.7470 H   0  0
    6.8821  -12.1607    1.0179 H   0  0
    8.6527  -13.0264   -0.6175 H   0  0
   10.1935  -14.9950    1.0044 H   0  0
   10.3922  -14.9760   -0.7559 H   0  0
   12.1578  -13.6029    0.3712 H   0  0
   10.9017  -12.5832    1.1018 H   0  0
   11.1278  -12.5833   -0.6524 H   0  0
    5.3214  -10.4281    1.3877 H   0  0
    1.7149   -8.9841   -1.8872 H   0  0
   -0.0766  -10.7270    2.4153 H   0  0
    2.3673  -10.5364    2.0957 H   0  0
    5.3495  -16.6364    1.5398 H   0  0
    3.9861  -17.5084   -2.4482 H   0  0
    2.2149  -19.2585    1.0592 H   0  0
  1  2  1  0
  1  8  2  0
  1  9  1  0
  2  3  1  0
  2  7  2  0
  3  4  2  0
  3 20  1  0
  4  5  1  0
  4 32  1  0
  5  6  2  0
  5 33  1  0
  6  7  1  0
  6 13  1  0
  7 34  1  0
  9 10  1  0
  9 35  1  0
 10 11  1  0
 10 36  1  0
 10 37  1  0
 11 38  1  0
 11 39  1  0
 11 40  1  0
 12 13  1  0
 12 14  1  0
 12 28  2  0
 12 29  2  0
 13 41  1  0
 14 15  1  0
 14 19  2  0
 15 16  2  0
 15 42  1  0
 16 17  1  0
 16 30  1  0
 17 18  2  0
 17 31  1  0
 18 19  1  0
 18 43  1  0
 19 44  1  0
 20 22  1  0
 21 22  1  0
 21 26  2  0
 21 45  1  0
 22 23  2  0
 23 24  1  0
 23 46  1  0
 24 25  2  0
 24 27  1  0
 25 26  1  0
 25 47  1  0
M  END
> <Name>
CHEMBL2331775

> <Clean Energy>
32.2286

> <chembl_id>
CHEMBL2331775

> <chembl_pref_name>
None

> <efficacy>
0.3

> <Forcefield>
MMFF

> <ForcefieldBase>
MMFF

> <ForcefieldFFML>
<?xml version="1.0" encoding="UTF-8"?>
<!DOCTYPE ffml SYSTEM "Ffml.dtd">
<ffml version="1.0">
<forcefield name="MMFF" derivedFrom="MMFF" base="MMFF">
<atomTypes>
<atomType
name="C100"
element="C"
mass="12.011"
annotation=""/>
<atomType
name="O101"
element="O"
mass="16"
annotation=""/>
<atomType
name="N102"
element="N"
mass="14.007"
annotation=""/>
<atomType
name="S103"
element="S"
mass="32.066"
annotation=""/>
<atomType
name="Cl104"
element="Cl"
mass="35.453"
annotation=""/>
<atomType
name="H105"
element="H"
mass="1.008"
annotation=""/>
</atomTypes>
<parameters>
</parameters>
</forcefield>
</ffml>

> <Initial Potential Energy>
590.55911

> <Initial RMS Gradient>
250.90551

> <Minimization Criteria>
CONJUG> Minimization exiting with gradient tolerance ( 0.0100000) satisfied.

> <CHARMm Energy>
17.27533

> <Potential Energy>
17.27533

> <RMS Gradient>
0.00967

> <Bond Energy>
4.13503

> <Angle Energy>
11.50658

> <STRBend>
1.00265

> <Dihedral Energy>
12.29235

> <OOPLane>
0.14794

> <Van der Waals Energy>
56.00256

> <Electrostatic Energy>
-67.81177

> <Hydrogen Bond Energy>
0

> <Solvation Free Energy>
0

> <HasGasteigerCharges>
true

> <REMARK99>
REMARK  99  MacroMolecule created from Mol2 file
REMARK  99  CHEMBL2331775
REMARK  99  PROTEIN
REMARK  99  GASTEIGER
REMARK  99
REMARK  99

$$$$
CHEMBL5087538
  SciTegic05292516403D

 57 59  0  0  0  0            999 V2000
   31.7404  -24.0069   -0.2779 C   0  0
   31.5807  -25.2743   -1.1288 C   0  0
   30.7463  -26.3846   -0.4743 C   0  0
   41.3842  -26.7338    2.4725 C   0  0
   40.4683  -27.6299    1.9121 C   0  0
   40.8206  -28.4477    0.8379 C   0  0
   42.0995  -28.3539    0.2919 C   0  0
   43.0303  -27.4465    0.8145 C   0  0
   42.6640  -26.6483    1.9060 C   0  0
   44.3471  -27.3690    0.3254 N   0  0
   44.3536  -27.0798   -0.8911 N   0  0
   39.2304  -27.7627    2.4767 O   0  0
   38.2239  -27.1042    1.6888 C   0  0
   37.1726  -28.1291    1.2674 C   0  0
   36.0082  -27.5000    0.5467 C   0  0
   36.0203  -27.3532   -0.8429 C   0  0
   34.9356  -26.7626   -1.4984 C   0  0
   33.8221  -26.3006   -0.7889 C   0  0
   33.8182  -26.4341    0.5954 C   0  0
   34.9009  -27.0292    1.2589 C   0  0
   32.8574  -25.7556   -1.5797 O   0  0
   30.8225  -24.8649   -2.4317 C   0  0
   29.5979  -24.3035   -2.2211 O   0  0
   31.2310  -25.0201   -3.5750 O   0  0
   45.6750  -27.0258   -1.3635 C   0  0
   46.4008  -28.1986   -1.6103 C   0  0
   47.7031  -28.1329   -2.1038 C   0  0
   48.2832  -26.8917   -2.3621 C   0  0
   47.5667  -25.7182   -2.1302 C   0  0
   46.2644  -25.7869   -1.6367 C   0  0
   41.0261  -25.8965    3.6653 C   0  0
   32.3762  -24.1532    0.5966 H   0  0
   30.7805  -23.6273    0.0856 H   0  0
   32.2130  -23.2110   -0.8662 H   0  0
   30.7319  -27.2769   -1.1113 H   0  0
   29.7082  -26.0804   -0.3063 H   0  0
   31.1361  -26.6987    0.4950 H   0  0
   40.1149  -29.1686    0.4374 H   0  0
   42.3864  -29.0009   -0.5330 H   0  0
   43.3979  -25.9607    2.3187 H   0  0
   37.7698  -26.3381    2.3289 H   0  0
   38.6352  -26.5834    0.8126 H   0  0
   37.6306  -28.8985    0.6332 H   0  0
   36.8127  -28.6759    2.1488 H   0  0
   36.8712  -27.6968   -1.4284 H   0  0
   34.9528  -26.6628   -2.5824 H   0  0
   33.0013  -26.0878    1.2128 H   0  0
   34.8625  -27.1250    2.3428 H   0  0
   29.3528  -24.2213   -1.2825 H   0  0
   45.9413  -29.1628   -1.4096 H   0  0
   48.2678  -29.0443   -2.2866 H   0  0
   49.2987  -26.8390   -2.7456 H   0  0
   48.0242  -24.7531   -2.3332 H   0  0
   45.7002  -24.8757   -1.4570 H   0  0
   41.8559  -25.2477    3.9651 H   0  0
   40.7789  -26.5378    4.5172 H   0  0
   40.1697  -25.2547    3.4341 H   0  0
  1 32  1  0
  1 33  1  0
  1 34  1  0
  2  1  1  0
  2 22  1  0
  3  2  1  0
  3 35  1  0
  3 36  1  0
  3 37  1  0
  4  5  2  0
  4 31  1  0
  5  6  1  0
  5 12  1  0
  6  7  2  0
  6 38  1  0
  7  8  1  0
  7 39  1  0
  8  9  2  0
  8 10  1  0
  9  4  1  0
  9 40  1  0
 10 11  2  0
 11 25  1  0
 12 13  1  0
 13 14  1  0
 13 41  1  0
 13 42  1  0
 14 15  1  0
 14 43  1  0
 14 44  1  0
 15 16  2  0
 16 17  1  0
 16 45  1  0
 17 18  2  0
 17 46  1  0
 18 19  1  0
 18 21  1  0
 19 20  2  0
 19 47  1  0
 20 15  1  0
 20 48  1  0
 21  2  1  0
 22 23  1  0
 22 24  2  0
 23 49  1  0
 25 26  2  0
 26 27  1  0
 26 50  1  0
 27 28  2  0
 27 51  1  0
 28 29  1  0
 28 52  1  0
 29 30  2  0
 29 53  1  0
 30 25  1  0
 30 54  1  0
 31 55  1  0
 31 56  1  0
 31 57  1  0
M  END
> <Name>
CHEMBL5087538

> <Clean Energy>
51.079899

> <chembl_id>
CHEMBL5087538

> <chembl_pref_name>
None

> <efficacy>
0.227920228

> <Forcefield>
MMFF

> <ForcefieldBase>
MMFF

> <ForcefieldFFML>
<?xml version="1.0" encoding="UTF-8"?>
<!DOCTYPE ffml SYSTEM "Ffml.dtd">
<ffml version="1.0">
<forcefield name="MMFF" derivedFrom="MMFF" base="MMFF">
<atomTypes>
<atomType
name="C100"
element="C"
mass="12.011"
annotation=""/>
<atomType
name="N101"
element="N"
mass="14.007"
annotation=""/>
<atomType
name="O102"
element="O"
mass="16"
annotation=""/>
<atomType
name="H103"
element="H"
mass="1.008"
annotation=""/>
</atomTypes>
<parameters>
</parameters>
</forcefield>
</ffml>

> <Initial Potential Energy>
554.56414

> <Initial RMS Gradient>
228.08036

> <Minimization Criteria>
STEEPD> Minimization exiting with gradient tolerance ( 3.0000000) satisfied.

> <CHARMm Energy>
104.53917

> <Potential Energy>
104.53917

> <RMS Gradient>
0.04385

> <Bond Energy>
6.63038

> <Angle Energy>
19.8392

> <STRBend>
0.36343

> <Dihedral Energy>
13.82749

> <OOPLane>
0.07881

> <Van der Waals Energy>
63.55524

> <Electrostatic Energy>
0.24464

> <Hydrogen Bond Energy>
0

> <Solvation Free Energy>
0

> <HasGasteigerCharges>
true

> <REMARK99>
REMARK  99  MacroMolecule created from Mol2 file
REMARK  99  CHEMBL5087538
REMARK  99  PROTEIN
REMARK  99  GASTEIGER
REMARK  99
REMARK  99

$$$$
CHEMBL5090873
  SciTegic05292516403D

 57 60  0  0  0  0            999 V2000
   15.8485   -6.6729    2.5728 F   0  0
   14.9674   -6.8090    1.5416 C   0  0
   13.7283   -6.6306    2.0742 F   0  0
   11.3090   -9.8981   -0.4866 O   0  0
   11.8523  -11.2356   -0.6338 S   0  0
   10.9739  -12.3880   -0.4898 O   0  0
   14.1514   -9.1273    0.9476 C   0  0
   14.2627  -10.3858    0.3351 C   0  0
   15.3962  -10.6441   -0.4374 C   0  0
   16.4013   -9.6811   -0.5678 C   0  0
   16.3361   -8.4424    0.1045 C   0  0
   15.1621   -8.1432    0.8367 C   0  0
   17.5186   -7.4812   -0.0005 C   0  0
   18.7833   -8.1943    0.0755 N   0  0
   20.0026   -7.6484   -0.2706 C   0  0
   21.1296   -8.6320   -0.3163 C   0  0
   20.2040   -6.4633   -0.5111 O   0  0
   20.9161   -9.9471   -0.7338 C   0  0
   21.9556  -10.8877   -0.7595 C   0  0
   22.4248   -8.2181    0.0118 C   0  0
   23.4885   -9.1524   -0.0013 C   0  0
   23.2369  -10.4957   -0.3315 C   0  0
   24.4444  -11.2038   -0.1712 N   0  0
   25.4374  -10.2692    0.0776 C   0  0
   24.8792   -9.0267    0.2338 C   0  0
   24.6818  -12.6050   -0.2124 C   0  0
   23.6420  -13.6549   -0.0666 C   0  0
   22.6013  -13.5199    0.8695 C   0  0
   21.6090  -14.4991    0.9659 C   0  0
   21.6888  -15.6393    0.1693 C   0  0
   22.7583  -15.7940   -0.7122 C   0  0
   23.7343  -14.8134   -0.8431 C   0  0
   22.8347  -16.9066   -1.4551 F   0  0
   13.1966  -11.4400    0.5223 C   0  0
   12.5965  -11.3504   -2.2449 C   0  0
   25.8495  -12.9762   -0.3407 O   0  0
   15.1851   -5.7493    0.7168 F   0  0
   13.2552   -8.9003    1.5311 H   0  0
   15.5252  -11.6021   -0.9393 H   0  0
   17.2617   -9.9170   -1.1933 H   0  0
   17.4715   -6.9334   -0.9477 H   0  0
   17.5273   -6.7566    0.8180 H   0  0
   18.7742   -9.1100    0.5029 H   0  0
   19.9335  -10.2628   -1.0768 H   0  0
   21.7263  -11.8895   -1.1122 H   0  0
   22.6268   -7.1799    0.2738 H   0  0
   26.4642  -10.5939    0.1761 H   0  0
   25.4240   -8.1225    0.4765 H   0  0
   22.5587  -12.6543    1.5295 H   0  0
   20.7731  -14.3664    1.6536 H   0  0
   20.9510  -16.4344    0.2418 H   0  0
   24.5510  -14.9591   -1.5439 H   0  0
   13.6051  -12.4466    0.3852 H   0  0
   12.7742  -11.3872    1.5314 H   0  0
   13.1698  -12.2772   -2.3041 H   0  0
   13.2317  -10.4806   -2.4159 H   0  0
   11.7930  -11.3652   -2.9849 H   0  0
  2  1  1  0
  2 37  1  0
  3  2  1  0
  5  4  2  0
  5 35  1  0
  6  5  2  0
  7  8  2  0
  7 38  1  0
  8  9  1  0
  8 34  1  0
  9 10  2  0
  9 39  1  0
 10 11  1  0
 10 40  1  0
 11 12  2  0
 11 13  1  0
 12  2  1  0
 12  7  1  0
 13 14  1  0
 13 41  1  0
 13 42  1  0
 14 15  1  0
 14 43  1  0
 15 16  1  0
 15 17  2  0
 16 18  2  0
 18 19  1  0
 18 44  1  0
 19 22  2  0
 19 45  1  0
 20 16  1  0
 20 46  1  0
 21 20  2  0
 21 22  1  0
 22 23  1  0
 23 24  1  0
 23 26  1  0
 24 25  2  0
 24 47  1  0
 25 21  1  0
 25 48  1  0
 26 27  1  0
 26 36  2  0
 27 28  2  0
 28 29  1  0
 28 49  1  0
 29 30  2  0
 29 50  1  0
 30 31  1  0
 30 51  1  0
 31 32  2  0
 31 33  1  0
 32 27  1  0
 32 52  1  0
 34  5  1  0
 34 53  1  0
 34 54  1  0
 35 55  1  0
 35 56  1  0
 35 57  1  0
M  END
> <Name>
CHEMBL5090873

> <Clean Energy>
50.876099

> <chembl_id>
CHEMBL5090873

> <chembl_pref_name>
None

> <efficacy>
0.24691358

> <Forcefield>
MMFF

> <ForcefieldBase>
MMFF

> <ForcefieldFFML>
<?xml version="1.0" encoding="UTF-8"?>
<!DOCTYPE ffml SYSTEM "Ffml.dtd">
<ffml version="1.0">
<forcefield name="MMFF" derivedFrom="MMFF" base="MMFF">
<atomTypes>
<atomType
name="F100"
element="F"
mass="18.998"
annotation=""/>
<atomType
name="C101"
element="C"
mass="12.011"
annotation=""/>
<atomType
name="O102"
element="O"
mass="16"
annotation=""/>
<atomType
name="S103"
element="S"
mass="32.066"
annotation=""/>
<atomType
name="N104"
element="N"
mass="14.007"
annotation=""/>
<atomType
name="H105"
element="H"
mass="1.008"
annotation=""/>
</atomTypes>
<parameters>
</parameters>
</forcefield>
</ffml>

> <Initial Potential Energy>
505.16743

> <Initial RMS Gradient>
190.83287

> <Minimization Criteria>
STEEPD> Minimization exiting with gradient tolerance ( 3.0000000) satisfied.

> <CHARMm Energy>
119.215

> <Potential Energy>
119.215

> <RMS Gradient>
0.01889

> <Bond Energy>
10.2098

> <Angle Energy>
9.69827

> <STRBend>
0.48649

> <Dihedral Energy>
14.18802

> <OOPLane>
0.11406

> <Van der Waals Energy>
59.0986

> <Electrostatic Energy>
25.41975

> <Hydrogen Bond Energy>
0

> <Solvation Free Energy>
0

> <HasGasteigerCharges>
true

> <REMARK99>
REMARK  99  MacroMolecule created from Mol2 file
REMARK  99  CHEMBL5090873
REMARK  99  PROTEIN
REMARK  99  GASTEIGER
REMARK  99
REMARK  99

$$$$
CHEMBL4560767
  SciTegic05292516403D

 59 61  0  0  0  0            999 V2000
   12.7989  -12.1993    1.6259 C   0  0
   13.2836  -11.0822    0.7061 C   0  0  2  0  0  0
   14.8095  -11.1251    0.5125 C   0  0
   15.2505  -12.3316   -0.3282 C   0  0
   16.7664  -12.3430   -0.5285 C   0  0
   17.2087  -13.5345   -1.3629 C   0  0
   13.5000  -12.7984    2.4291 O   0  0
   11.4816  -12.4899    1.4861 O   0  0
   12.8361   -9.4716    1.4497 S   0  0
   10.2274   -7.9465    1.4465 S   0  0
   11.1440   -9.3249    1.0215 C   0  0
   10.5069  -10.2729    0.3667 N   0  0
    9.1964   -9.8655    0.1324 C   0  0
    8.8530   -8.6233    0.6656 C   0  0
    8.2098  -10.5835   -0.5723 C   0  0
    6.9174  -10.0484   -0.7181 C   0  0
    6.5866   -8.8144   -0.1638 C   0  0
    7.5606   -8.0858    0.5360 C   0  0
    4.1781   -8.7257   -0.8677 C   0  0
    2.9579   -7.8920   -0.6757 C   0  0
    2.9775   -6.5052   -0.8325 C   0  0
    1.8112   -5.7658   -0.6112 C   0  0
    0.6023   -6.3860   -0.2343 C   0  0
    0.6082   -7.7854   -0.1047 C   0  0
    1.7665   -8.5321   -0.3322 C   0  0
    4.0619   -9.7529   -1.5232 O   0  0
    5.3045   -8.2322   -0.2375 N   0  0
   -0.6620   -5.5362    0.0008 C   0  0
   -1.0322   -4.7877   -1.2977 C   0  0
   -1.8990   -6.3607    0.4229 C   0  0
   -0.3954   -4.5085    1.1219 C   0  0
   12.8154  -11.1936   -0.2784 H   0  0
   15.1442  -10.2150   -0.0029 H   0  0
   15.3239  -11.1541    1.4819 H   0  0
   14.9428  -13.2644    0.1576 H   0  0
   14.7530  -12.2978   -1.3052 H   0  0
   17.0839  -11.4187   -1.0250 H   0  0
   17.2700  -12.3786    0.4446 H   0  0
   18.2952  -13.5229   -1.4941 H   0  0
   16.7464  -13.5119   -2.3549 H   0  0
   16.9352  -14.4767   -0.8774 H   0  0
   10.9933  -11.8553    0.9058 H   0  0
    8.4471  -11.5527   -1.0023 H   0  0
    6.1847  -10.6366   -1.2649 H   0  0
    7.3356   -7.1188    0.9760 H   0  0
    3.8736   -5.9843   -1.1547 H   0  0
    1.8508   -4.6865   -0.7513 H   0  0
   -0.2885   -8.3348    0.1686 H   0  0
    1.7372   -9.6152   -0.2312 H   0  0
    5.1897   -7.3677    0.2760 H   0  0
   -1.9492   -4.2011   -1.1678 H   0  0
   -1.1991   -5.4893   -2.1236 H   0  0
   -0.2480   -4.0905   -1.6122 H   0  0
   -2.7690   -5.7129    0.5850 H   0  0
   -1.7220   -6.9028    1.3591 H   0  0
   -2.1804   -7.0894   -0.3462 H   0  0
   -1.2920   -3.9148    1.3352 H   0  0
    0.3997   -3.8028    0.8573 H   0  0
   -0.0967   -5.0076    2.0514 H   0  0
  1  2  1  0
  1  7  2  0
  1  8  1  0
  2  3  1  0
  2  9  1  0
  2 32  1  0
  3  4  1  0
  3 33  1  0
  3 34  1  0
  4  5  1  0
  4 35  1  0
  4 36  1  0
  5  6  1  0
  5 37  1  0
  5 38  1  0
  6 39  1  0
  6 40  1  0
  6 41  1  0
  8 42  1  0
  9 11  1  0
 10 11  1  0
 10 14  1  0
 11 12  2  0
 12 13  1  0
 13 14  1  0
 13 15  2  0
 14 18  2  0
 15 16  1  0
 15 43  1  0
 16 17  2  0
 16 44  1  0
 17 18  1  0
 17 27  1  0
 18 45  1  0
 19 20  1  0
 19 26  2  0
 19 27  1  0
 20 21  1  0
 20 25  2  0
 21 22  2  0
 21 46  1  0
 22 23  1  0
 22 47  1  0
 23 24  2  0
 23 28  1  0
 24 25  1  0
 24 48  1  0
 25 49  1  0
 27 50  1  0
 28 29  1  0
 28 30  1  0
 28 31  1  0
 29 51  1  0
 29 52  1  0
 29 53  1  0
 30 54  1  0
 30 55  1  0
 30 56  1  0
 31 57  1  0
 31 58  1  0
 31 59  1  0
M  END
> <Name>
CHEMBL4560767

> <Clean Energy>
48.942699

> <chembl_id>
CHEMBL4560767

> <chembl_pref_name>
None

> <efficacy>
0.067426401

> <Forcefield>
MMFF

> <ForcefieldBase>
MMFF

> <ForcefieldFFML>
<?xml version="1.0" encoding="UTF-8"?>
<!DOCTYPE ffml SYSTEM "Ffml.dtd">
<ffml version="1.0">
<forcefield name="MMFF" derivedFrom="MMFF" base="MMFF">
<atomTypes>
<atomType
name="C100"
element="C"
mass="12.011"
annotation=""/>
<atomType
name="O101"
element="O"
mass="16"
annotation=""/>
<atomType
name="S102"
element="S"
mass="32.066"
annotation=""/>
<atomType
name="N103"
element="N"
mass="14.007"
annotation=""/>
<atomType
name="H104"
element="H"
mass="1.008"
annotation=""/>
</atomTypes>
<parameters>
</parameters>
</forcefield>
</ffml>

> <Initial Potential Energy>
122.34514

> <Initial RMS Gradient>
26.92241

> <Minimization Criteria>
CONJUG> Minimization exiting with gradient tolerance ( 0.0100000) satisfied.

> <CHARMm Energy>
29.97714

> <Potential Energy>
29.97714

> <RMS Gradient>
0.00935

> <Bond Energy>
7.62587

> <Angle Energy>
12.03921

> <STRBend>
0.2795

> <Dihedral Energy>
0.47213

> <OOPLane>
0.03036

> <Van der Waals Energy>
56.56891

> <Electrostatic Energy>
-47.03884

> <Hydrogen Bond Energy>
0

> <Solvation Free Energy>
0

> <HasGasteigerCharges>
true

> <REMARK99>
REMARK  99  MacroMolecule created from Mol2 file
REMARK  99  CHEMBL4560767
REMARK  99  PROTEIN
REMARK  99  GASTEIGER
REMARK  99
REMARK  99

$$$$
CHEMBL361351
  SciTegic05292516403D

 52 54  0  0  0  0            999 V2000
   11.5933   -3.1169    0.8517 C   0  0
   10.9229   -4.3684    0.4237 C   0  0
   10.9089   -1.9585    0.8041 C   0  0
    8.9004   -3.0770    0.0619 C   0  0
    9.5270   -1.9378    0.3809 C   0  0
    9.5938   -4.3101    0.0935 O   0  0
   12.9560   -3.2140    1.2757 C   0  0
   14.0682   -3.2495    1.6122 N   0  0
    7.4844   -3.1592   -0.3656 C   0  0
   11.5561   -5.4203    0.3540 O   0  0
   11.5724   -0.4185    1.2928 S   0  0
    0.2200   -3.9409    0.2321 N   0  0
    6.5263   -2.2204    0.0526 C   0  0
    7.0496   -4.2048   -1.1940 C   0  0
   -0.6750   -2.9196   -0.3481 C   0  0
    0.3699   -4.0993    1.8869 S   0  0
    1.3593   -4.2426   -0.6454 C   0  0
    4.7652   -3.3829   -1.1390 C   0  0
    5.1839   -2.3209   -0.3421 C   0  0
    5.7066   -4.3090   -1.5835 C   0  0
    2.4627   -3.1848   -0.6189 C   0  0
   -2.1340   -3.3159   -0.2741 C   0  0
    3.4756   -3.5873   -1.5521 O   0  0
   12.5714   -0.0006   -0.1601 C   0  0
   -0.6779   -5.5540    2.1534 C   0  0
   -2.6113   -4.3897   -1.0408 C   0  0
   -3.0277   -2.6290    0.5588 C   0  0
   -4.3716   -3.0058    0.6189 C   0  0
   -3.9541   -4.7650   -0.9778 C   0  0
   -4.8356   -4.0724   -0.1497 C   0  0
    9.0241   -0.9763    0.3292 H   0  0
    6.7935   -1.3964    0.7093 H   0  0
    7.7466   -4.9605   -1.5499 H   0  0
   -0.5092   -1.9501    0.1403 H   0  0
   -0.4541   -2.7440   -1.4101 H   0  0
    1.7920   -5.2134   -0.3658 H   0  0
    1.0187   -4.3996   -1.6779 H   0  0
    4.4882   -1.5563   -0.0100 H   0  0
    5.3953   -5.1322   -2.2220 H   0  0
    2.0816   -2.2063   -0.9307 H   0  0
    2.8502   -3.1091    0.4042 H   0  0
   13.0161    0.9877   -0.0160 H   0  0
   11.9463    0.0270   -1.0569 H   0  0
   13.3773   -0.7244   -0.3042 H   0  0
   -1.7232   -5.3248    1.9334 H   0  0
   -0.6048   -5.8609    3.2001 H   0  0
   -0.3479   -6.3843    1.5229 H   0  0
   -1.9322   -4.9440   -1.6850 H   0  0
   -2.6836   -1.7998    1.1725 H   0  0
   -5.0541   -2.4666    1.2701 H   0  0
   -4.3061   -5.6014   -1.5747 H   0  0
   -5.8813   -4.3649   -0.1001 H   0  0
  2  1  1  0
  3  1  2  0
  4  5  2  0
  5  3  1  0
  5 31  1  0
  6  2  1  0
  6  4  1  0
  7  1  1  0
  8  7  3  0
  9  4  1  0
 10  2  2  0
 11  3  1  0
 12 17  1  0
 13  9  2  0
 13 32  1  0
 14  9  1  0
 14 33  1  0
 15 12  1  0
 15 34  1  0
 15 35  1  0
 16 12  1  0
 17 21  1  0
 17 36  1  0
 17 37  1  0
 18 20  1  0
 19 13  1  0
 19 18  2  0
 19 38  1  0
 20 14  2  0
 20 39  1  0
 21 23  1  0
 21 40  1  0
 21 41  1  0
 22 15  1  0
 23 18  1  0
 24 11  1  0
 24 42  1  0
 24 43  1  0
 24 44  1  0
 25 16  1  0
 25 45  1  0
 25 46  1  0
 25 47  1  0
 26 22  1  0
 26 48  1  0
 27 22  2  0
 27 49  1  0
 28 27  1  0
 28 50  1  0
 29 26  2  0
 29 30  1  0
 29 51  1  0
 30 28  2  0
 30 52  1  0
M  END
> <Name>
CHEMBL361351

> <Clean Energy>
61.091702

> <chembl_id>
CHEMBL361351

> <chembl_pref_name>
None

> <efficacy>
0.07

> <Forcefield>
MMFF

> <ForcefieldBase>
MMFF

> <ForcefieldFFML>
<?xml version="1.0" encoding="UTF-8"?>
<!DOCTYPE ffml SYSTEM "Ffml.dtd">
<ffml version="1.0">
<forcefield name="MMFF" derivedFrom="MMFF" base="MMFF">
<atomTypes>
<atomType
name="C100"
element="C"
mass="12.011"
annotation=""/>
<atomType
name="O101"
element="O"
mass="16"
annotation=""/>
<atomType
name="N102"
element="N"
mass="14.007"
annotation=""/>
<atomType
name="S103"
element="S"
mass="32.066"
annotation=""/>
<atomType
name="H104"
element="H"
mass="1.008"
annotation=""/>
</atomTypes>
<parameters>
</parameters>
</forcefield>
</ffml>

> <Initial Potential Energy>
272.84499

> <Initial RMS Gradient>
30.35409

> <Minimization Criteria>
CONJUG> Minimization exiting with gradient tolerance ( 0.0100000) satisfied.

> <CHARMm Energy>
72.36442

> <Potential Energy>
72.36442

> <RMS Gradient>
0.00897

> <Bond Energy>
5.6542

> <Angle Energy>
19.53384

> <STRBend>
0.3163

> <Dihedral Energy>
5.25617

> <OOPLane>
0.02087

> <Van der Waals Energy>
57.74045

> <Electrostatic Energy>
-16.1574

> <Hydrogen Bond Energy>
0

> <Solvation Free Energy>
0

> <HasGasteigerCharges>
true

> <REMARK99>
REMARK  99  MacroMolecule created from Mol2 file
REMARK  99  CHEMBL361351
REMARK  99  PROTEIN
REMARK  99  GASTEIGER
REMARK  99
REMARK  99

$$$$
CHEMBL4445012
  SciTegic05292516403D

 64 67  0  0  0  0            999 V2000
    5.7189   -5.6411   -2.3062 O   0  0
    5.4805   -5.4416   -0.8928 S   0  0
    6.2340   -4.4598   -0.1410 O   0  0
   15.4745  -10.4500   -0.1903 C   0  0
   14.2226   -9.5426    0.0073 C   0  0  1  0  0  0
   14.7554   -8.1531    0.4196 C   0  0
   13.7527   -7.2435    1.1404 C   0  0
   13.1967   -6.1303    0.2480 C   0  0
   12.0643   -5.3737    0.9464 C   0  0
   11.4057   -4.3597    0.0113 C   0  0
   10.2390   -3.6566    0.6875 C   0  0
   16.0288  -11.0528    0.7251 O   0  0
   16.0179  -10.4724   -1.4346 O   0  0
   13.1872   -9.5126   -1.5127 S   0  0
   10.4764   -8.3394   -2.2301 S   0  0
   11.5662   -8.9599   -1.0405 C   0  0
   11.0839   -9.0003    0.1814 N   0  0
    9.7741   -8.4964    0.2013 C   0  0
    9.2624   -8.0774   -1.0283 C   0  0
    8.9294   -8.3765    1.3282 C   0  0
    7.6239   -7.8474    1.2007 C   0  0
    7.1272   -7.4115   -0.0299 C   0  0
    7.9478   -7.5469   -1.1640 C   0  0
    5.7448   -6.9374   -0.1059 N   0  0
    1.0226   -4.7319   -0.2483 C   0  0
    1.9736   -4.1399    0.6022 C   0  0
    3.3377   -4.3583    0.4171 C   0  0
    3.7590   -5.1875   -0.6212 C   0  0
    2.8386   -5.7886   -1.4800 C   0  0
    1.4768   -5.5626   -1.2874 C   0  0
   -0.4119   -4.4714   -0.0705 C   0  0
   -1.3274   -5.5277    0.0709 C   0  0
   -2.6896   -5.2758    0.2314 C   0  0
   -3.1508   -3.9638    0.2505 C   0  0
   -2.2648   -2.9010    0.1087 C   0  0
   -0.9035   -3.1545   -0.0502 C   0  0
   13.6357  -10.0016    0.8106 H   0  0
   15.5836   -8.3139    1.1246 H   0  0
   15.2100   -7.6397   -0.4380 H   0  0
   12.9472   -7.8357    1.5857 H   0  0
   14.2682   -6.7624    1.9820 H   0  0
   14.0028   -5.4306   -0.0059 H   0  0
   12.8344   -6.5393   -0.6980 H   0  0
   11.3077   -6.0841    1.2980 H   0  0
   12.4577   -4.8606    1.8325 H   0  0
   12.1428   -3.6144   -0.3084 H   0  0
   11.0416   -4.8646   -0.8909 H   0  0
    9.7820   -2.9354    0.0029 H   0  0
   10.5705   -3.1163    1.5800 H   0  0
    9.4682   -4.3745    0.9863 H   0  0
   15.4878   -9.9666   -2.0827 H   0  0
    9.2943   -8.7009    2.2989 H   0  0
    7.0101   -7.7786    2.0958 H   0  0
    7.5891   -7.2627   -2.1492 H   0  0
    5.2330   -6.9697    0.7776 H   0  0
    1.6530   -3.4978    1.4202 H   0  0
    4.0564   -3.8744    1.0752 H   0  0
    3.1731   -6.4196   -2.3013 H   0  0
    0.7653   -6.0225   -1.9708 H   0  0
   -0.9870   -6.5601    0.0625 H   0  0
   -3.3906   -6.0995    0.3401 H   0  0
   -4.2079   -3.7686    0.3720 H   0  0
   -2.6374   -1.8791    0.1152 H   0  0
   -0.2249   -2.3131   -0.1746 H   0  0
  2  1  2  0
  2 24  1  0
  2 28  1  0
  3  2  2  0
  4  5  1  0
  4 12  2  0
  4 13  1  0
  5  6  1  0
  5 14  1  0
  5 37  1  0
  6  7  1  0
  6 38  1  0
  6 39  1  0
  7  8  1  0
  7 40  1  0
  7 41  1  0
  8  9  1  0
  8 42  1  0
  8 43  1  0
  9 10  1  0
  9 44  1  0
  9 45  1  0
 10 11  1  0
 10 46  1  0
 10 47  1  0
 11 48  1  0
 11 49  1  0
 11 50  1  0
 13 51  1  0
 14 16  1  0
 15 16  1  0
 15 19  1  0
 16 17  2  0
 17 18  1  0
 18 19  1  0
 18 20  2  0
 19 23  2  0
 20 21  1  0
 20 52  1  0
 21 22  2  0
 21 53  1  0
 22 23  1  0
 22 24  1  0
 23 54  1  0
 24 55  1  0
 25 26  1  0
 25 30  2  0
 25 31  1  0
 26 27  2  0
 26 56  1  0
 27 28  1  0
 27 57  1  0
 28 29  2  0
 29 30  1  0
 29 58  1  0
 30 59  1  0
 31 32  1  0
 31 36  2  0
 32 33  2  0
 32 60  1  0
 33 34  1  0
 33 61  1  0
 34 35  2  0
 34 62  1  0
 35 36  1  0
 35 63  1  0
 36 64  1  0
M  END
> <Name>
CHEMBL4445012

> <Clean Energy>
44.012402

> <chembl_id>
CHEMBL4445012

> <chembl_pref_name>
None

> <efficacy>
0.24691358

> <Forcefield>
MMFF

> <ForcefieldBase>
MMFF

> <ForcefieldFFML>
<?xml version="1.0" encoding="UTF-8"?>
<!DOCTYPE ffml SYSTEM "Ffml.dtd">
<ffml version="1.0">
<forcefield name="MMFF" derivedFrom="MMFF" base="MMFF">
<atomTypes>
<atomType
name="O100"
element="O"
mass="16"
annotation=""/>
<atomType
name="S101"
element="S"
mass="32.066"
annotation=""/>
<atomType
name="C102"
element="C"
mass="12.011"
annotation=""/>
<atomType
name="N103"
element="N"
mass="14.007"
annotation=""/>
<atomType
name="H104"
element="H"
mass="1.008"
annotation=""/>
</atomTypes>
<parameters>
</parameters>
</forcefield>
</ffml>

> <Initial Potential Energy>
186.72076

> <Initial RMS Gradient>
32.07166

> <Minimization Criteria>
STEEPD> Minimization exiting with gradient tolerance ( 3.0000000) satisfied.

> <CHARMm Energy>
6.55327

> <Potential Energy>
6.55327

> <RMS Gradient>
0.07091

> <Bond Energy>
9.94764

> <Angle Energy>
16.93118

> <STRBend>
-0.39828

> <Dihedral Energy>
0.34114

> <OOPLane>
0.24588

> <Van der Waals Energy>
53.04643

> <Electrostatic Energy>
-73.56073

> <Hydrogen Bond Energy>
0

> <Solvation Free Energy>
0

> <HasGasteigerCharges>
true

> <REMARK99>
REMARK  99  MacroMolecule created from Mol2 file
REMARK  99  CHEMBL4445012
REMARK  99  PROTEIN
REMARK  99  GASTEIGER
REMARK  99
REMARK  99

$$$$
CHEMBL5071398
  SciTegic05292516403D

 49 52  0  0  0  0            999 V2000
    0.0711   -8.0174    2.3665 F   0  0
   -0.6289   -8.9971    1.7272 C   0  0
   -0.1075  -10.1693    2.1952 F   0  0
   -1.6518   -8.8628   -0.5662 C   0  0
   -1.5750   -8.7590   -1.9522 C   0  0
   -0.3273   -8.6971   -2.5708 C   0  0
    0.8437   -8.7348   -1.8092 C   0  0
    0.7983   -8.8549   -0.4081 C   0  0
   -0.4787   -8.9049    0.2204 C   0  0
   -1.9071   -8.9285    2.1856 F   0  0
    2.0933   -8.7768    0.3957 C   0  0
    3.2232   -9.5432   -0.1295 N   0  0
    4.5190   -9.1832    0.2226 C   0  0
    5.6688  -10.0730   -0.1512 C   0  0
    4.7606   -8.1493    0.8415 O   0  0
    5.5252  -11.4651   -0.3649 C   0  0
    6.6461  -12.2847   -0.6211 C   0  0
    6.9558   -9.4910   -0.1939 C   0  0
    8.0351  -10.3152   -0.4491 C   0  0
    7.8907  -11.6864   -0.6573 C   0  0
    9.1744  -12.2185   -0.8697 N   0  0
   10.1273  -11.1740   -0.8002 C   0  0
    9.3920  -10.0009   -0.5355 N   0  0
   11.3379  -11.2463   -0.9345 O   0  0
    9.5240  -13.5950   -1.1221 C   0  0
    9.7538  -14.4503    0.1084 C   0  0
    9.7151  -13.9360    1.4151 C   0  0
    9.8968  -14.7676    2.5228 C   0  0
   10.1424  -16.1239    2.3393 C   0  0
   10.2288  -16.6369    1.0517 C   0  0
   10.0344  -15.8179   -0.0585 C   0  0
   10.4978  -17.9385    0.8740 F   0  0
   -2.6352   -8.8981   -0.0956 H   0  0
   -2.4849   -8.7140   -2.5479 H   0  0
   -0.2832   -8.5907   -3.6534 H   0  0
    1.8034   -8.6458   -2.3171 H   0  0
    2.3740   -7.7207    0.4836 H   0  0
    1.9487   -9.1626    1.4084 H   0  0
    3.0379  -10.3875   -0.6509 H   0  0
    4.5492  -11.9376   -0.2906 H   0  0
    6.5281  -13.3538   -0.7616 H   0  0
    7.0941   -8.4300   -0.0113 H   0  0
    9.8343   -9.0993   -0.4395 H   0  0
    8.7355  -14.0435   -1.7377 H   0  0
   10.4510  -13.6025   -1.7085 H   0  0
    9.5530  -12.8762    1.5936 H   0  0
    9.8404  -14.3507    3.5255 H   0  0
   10.2764  -16.7764    3.1934 H   0  0
   10.1178  -16.2632   -1.0471 H   0  0
  2  1  1  0
  2 10  1  0
  3  2  1  0
  4  5  2  0
  4 33  1  0
  5  6  1  0
  5 34  1  0
  6  7  2  0
  6 35  1  0
  7  8  1  0
  7 36  1  0
  8  9  2  0
  8 11  1  0
  9  2  1  0
  9  4  1  0
 11 12  1  0
 11 37  1  0
 11 38  1  0
 12 13  1  0
 12 39  1  0
 13 14  1  0
 13 15  2  0
 14 16  2  0
 16 17  1  0
 16 40  1  0
 17 20  2  0
 17 41  1  0
 18 14  1  0
 18 42  1  0
 19 18  2  0
 19 20  1  0
 20 21  1  0
 21 22  1  0
 21 25  1  0
 22 23  1  0
 22 24  2  0
 23 19  1  0
 23 43  1  0
 25 26  1  0
 25 44  1  0
 25 45  1  0
 26 27  2  0
 27 28  1  0
 27 46  1  0
 28 29  2  0
 28 47  1  0
 29 30  1  0
 29 48  1  0
 30 31  2  0
 30 32  1  0
 31 26  1  0
 31 49  1  0
M  END
> <Name>
CHEMBL5071398

> <Clean Energy>
47.403801

> <chembl_id>
CHEMBL5071398

> <chembl_pref_name>
None

> <efficacy>
0.216524217

> <Forcefield>
MMFF

> <ForcefieldBase>
MMFF

> <ForcefieldFFML>
<?xml version="1.0" encoding="UTF-8"?>
<!DOCTYPE ffml SYSTEM "Ffml.dtd">
<ffml version="1.0">
<forcefield name="MMFF" derivedFrom="MMFF" base="MMFF">
<atomTypes>
<atomType
name="F100"
element="F"
mass="18.998"
annotation=""/>
<atomType
name="C101"
element="C"
mass="12.011"
annotation=""/>
<atomType
name="N102"
element="N"
mass="14.007"
annotation=""/>
<atomType
name="O103"
element="O"
mass="16"
annotation=""/>
<atomType
name="H104"
element="H"
mass="1.008"
annotation=""/>
</atomTypes>
<parameters>
</parameters>
</forcefield>
</ffml>

> <Initial Potential Energy>
390.89381

> <Initial RMS Gradient>
221.45781

> <Minimization Criteria>
CONJUG> Minimization exiting with gradient tolerance ( 0.0100000) satisfied.

> <CHARMm Energy>
8.16676

> <Potential Energy>
8.16676

> <RMS Gradient>
0.00936

> <Bond Energy>
9.45272

> <Angle Energy>
29.54759

> <STRBend>
-1.6125

> <Dihedral Energy>
0.03089

> <OOPLane>
0.17079

> <Van der Waals Energy>
52.82464

> <Electrostatic Energy>
-82.24736

> <Hydrogen Bond Energy>
0

> <Solvation Free Energy>
0

> <HasGasteigerCharges>
true

> <REMARK99>
REMARK  99  MacroMolecule created from Mol2 file
REMARK  99  CHEMBL5071398
REMARK  99  PROTEIN
REMARK  99  GASTEIGER
REMARK  99
REMARK  99

$$$$
CHEMBL4587577
  SciTegic05292516403D

 52 55  0  0  0  0            999 V2000
   30.0565  -19.3155    1.4057 C   0  0
   29.9118  -20.4257    0.5687 C   0  0
   30.9818  -20.9011   -0.2033 C   0  0
   31.2729  -18.6255    1.4926 C   0  0
   32.3556  -19.0995    0.7118 C   0  0
   32.1988  -20.2100   -0.1120 C   0  0
   33.4389  -20.3713   -0.6990 N   0  0
   34.2500  -19.3273   -0.2889 C   0  0
   33.6332  -18.5934    0.6148 N   0  0
   33.8246  -21.4554   -1.5982 C   0  0
   34.9744  -22.2907   -1.0751 C   0  0
   35.9136  -22.8275   -1.9685 C   0  0
   36.9861  -23.6055   -1.5081 C   0  0
   37.1572  -23.8614   -0.1419 C   0  0
   36.1987  -23.3358    0.7430 C   0  0
   35.1150  -22.5829    0.2863 C   0  0
   38.2603  -24.6875    0.3840 C   0  0
   37.9442  -25.7740    1.2315 C   0  0
   38.9314  -26.5533    1.8404 C   0  0
   40.2710  -26.2746    1.6119 C   0  0
   40.6182  -25.2308    0.7605 C   0  0
   39.6248  -24.4452    0.1478 C   0  0
   40.1378  -23.4037   -0.7657 C   0  0
   40.7888  -22.4318   -0.0883 O   0  0
   40.1748  -23.5339   -1.9770 O   0  0
   35.6489  -19.1029   -0.7790 C   0  0
   36.0401  -17.6241   -0.7383 C   0  0
   37.4480  -17.4060   -1.2697 C   0  0
   31.4186  -17.5423    2.3618 N   0  0
   29.2084  -18.9863    2.0026 H   0  0
   28.9468  -20.9301    0.5219 H   0  0
   30.8558  -21.7671   -0.8438 H   0  0
   32.9604  -22.1056   -1.7636 H   0  0
   34.0791  -20.9822   -2.5537 H   0  0
   35.8264  -22.6463   -3.0386 H   0  0
   37.6824  -24.0185   -2.2392 H   0  0
   36.2846  -23.5121    1.8145 H   0  0
   34.3977  -22.2110    1.0172 H   0  0
   36.9026  -26.0281    1.4270 H   0  0
   38.6452  -27.3758    2.4913 H   0  0
   41.0425  -26.8755    2.0829 H   0  0
   41.6697  -25.0347    0.5562 H   0  0
   40.4865  -22.3650    0.8405 H   0  0
   36.3400  -19.6814   -0.1549 H   0  0
   35.7519  -19.4624   -1.8088 H   0  0
   35.3343  -17.0326   -1.3344 H   0  0
   35.9843  -17.2455    0.2896 H   0  0
   37.7083  -16.3438   -1.2279 H   0  0
   37.5299  -17.7349   -2.3106 H   0  0
   38.1817  -17.9596   -0.6751 H   0  0
   30.6534  -16.8860    2.4649 H   0  0
   32.3713  -17.1746    2.3521 H   0  0
  1  2  2  0
  1 30  1  0
  2  3  1  0
  2 31  1  0
  3  6  2  0
  3 32  1  0
  4  1  1  0
  4 29  1  0
  5  4  2  0
  5  6  1  0
  6  7  1  0
  7  8  1  0
  7 10  1  0
  8  9  2  0
  8 26  1  0
  9  5  1  0
 10 11  1  0
 10 33  1  0
 10 34  1  0
 11 12  2  0
 12 13  1  0
 12 35  1  0
 13 14  2  0
 13 36  1  0
 14 15  1  0
 14 17  1  0
 15 16  2  0
 15 37  1  0
 16 11  1  0
 16 38  1  0
 17 18  2  0
 18 19  1  0
 18 39  1  0
 19 20  2  0
 19 40  1  0
 20 21  1  0
 20 41  1  0
 21 22  2  0
 21 42  1  0
 22 17  1  0
 22 23  1  0
 23 24  1  0
 23 25  2  0
 24 43  1  0
 26 27  1  0
 26 44  1  0
 26 45  1  0
 27 28  1  0
 27 46  1  0
 27 47  1  0
 28 48  1  0
 28 49  1  0
 28 50  1  0
 29 51  1  0
 29 52  1  0
M  END
> <Name>
CHEMBL4587577

> <Clean Energy>
46.8577

> <chembl_id>
CHEMBL4587577

> <chembl_pref_name>
None

> <efficacy>
0.149097816

> <Forcefield>
MMFF

> <ForcefieldBase>
MMFF

> <ForcefieldFFML>
<?xml version="1.0" encoding="UTF-8"?>
<!DOCTYPE ffml SYSTEM "Ffml.dtd">
<ffml version="1.0">
<forcefield name="MMFF" derivedFrom="MMFF" base="MMFF">
<atomTypes>
<atomType
name="C100"
element="C"
mass="12.011"
annotation=""/>
<atomType
name="N101"
element="N"
mass="14.007"
annotation=""/>
<atomType
name="O102"
element="O"
mass="16"
annotation=""/>
<atomType
name="H103"
element="H"
mass="1.008"
annotation=""/>
</atomTypes>
<parameters>
</parameters>
</forcefield>
</ffml>

> <Initial Potential Energy>
260.48644

> <Initial RMS Gradient>
37.87361

> <Minimization Criteria>
STEEPD> Minimization exiting with gradient tolerance ( 3.0000000) satisfied.

> <CHARMm Energy>
85.50588

> <Potential Energy>
85.50588

> <RMS Gradient>
0.03162

> <Bond Energy>
7.32991

> <Angle Energy>
9.64402

> <STRBend>
-0.50106

> <Dihedral Energy>
12.87188

> <OOPLane>
3.16336

> <Van der Waals Energy>
55.07845

> <Electrostatic Energy>
-2.08067

> <Hydrogen Bond Energy>
0

> <Solvation Free Energy>
0

> <HasGasteigerCharges>
true

> <REMARK99>
REMARK  99  MacroMolecule created from Mol2 file
REMARK  99  CHEMBL4587577
REMARK  99  PROTEIN
REMARK  99  GASTEIGER
REMARK  99
REMARK  99

$$$$
CHEMBL4591010
  SciTegic05292516403D

 51 54  0  0  0  0            999 V2000
   10.1097  -20.0393   -0.8321 C   0  0
   10.2225  -20.9152    0.2500 C   0  0
   11.4604  -21.1605    0.8704 C   0  0
   11.2413  -19.3872   -1.3139 C   0  0
   12.4890  -19.6043   -0.7042 C   0  0
   12.5825  -20.4806    0.3699 C   0  0
   13.9209  -20.4516    0.7038 N   0  0
   14.5522  -19.5314   -0.1175 C   0  0
   13.7084  -19.0566   -1.0134 N   0  0
   14.5514  -21.2472    1.7515 C   0  0
   15.6098  -22.2015    1.2421 C   0  0
   15.5511  -22.7794   -0.0308 C   0  0
   16.5619  -23.6386   -0.4684 C   0  0
   17.6425  -23.9910    0.3597 C   0  0
   17.6697  -23.4469    1.6491 C   0  0
   16.6730  -22.5613    2.0824 C   0  0
   18.6528  -24.9447   -0.1386 C   0  0
   18.2087  -26.1973   -0.6163 C   0  0
   19.0802  -27.1113   -1.2134 C   0  0
   20.4258  -26.7972   -1.3537 C   0  0
   20.9025  -25.5827   -0.8706 C   0  0
   20.0299  -24.6744   -0.2510 C   0  0
   20.6736  -23.4533    0.2681 C   0  0
   20.9034  -23.5583    1.5969 O   0  0
   21.1079  -22.5544   -0.4269 O   0  0
   16.0059  -19.1745   -0.0212 C   0  0
   16.2772  -17.7430   -0.4885 C   0  0
   17.7486  -17.3837   -0.3530 C   0  0
   11.1226  -18.5299   -2.3810 O   0  0
    9.1456  -19.8634   -1.3012 H   0  0
    9.3289  -21.4170    0.6188 H   0  0
   11.5272  -21.8467    1.7079 H   0  0
   14.9772  -20.5303    2.4634 H   0  0
   13.7795  -21.8204    2.2739 H   0  0
   14.7342  -22.5553   -0.7156 H   0  0
   16.4955  -24.0367   -1.4807 H   0  0
   18.4590  -23.7056    2.3485 H   0  0
   16.7406  -22.1533    3.0898 H   0  0
   17.1540  -26.4635   -0.5440 H   0  0
   18.6978  -28.0584   -1.5869 H   0  0
   21.1003  -27.4917   -1.8449 H   0  0
   21.9563  -25.3336   -0.9831 H   0  0
   20.7063  -24.4427    1.9657 H   0  0
   16.3547  -19.2762    1.0124 H   0  0
   16.5826  -19.8757   -0.6356 H   0  0
   15.9759  -17.6226   -1.5363 H   0  0
   15.6781  -17.0364    0.0989 H   0  0
   17.9211  -16.3580   -0.6935 H   0  0
   18.3723  -18.0515   -0.9558 H   0  0
   18.0756  -17.4550    0.6892 H   0  0
   12.0476  -18.2460   -2.5435 H   0  0
  1  2  2  0
  1 30  1  0
  2  3  1  0
  2 31  1  0
  3  6  2  0
  3 32  1  0
  4  1  1  0
  4 29  1  0
  5  4  2  0
  5  6  1  0
  6  7  1  0
  7  8  1  0
  7 10  1  0
  8  9  2  0
  8 26  1  0
  9  5  1  0
 10 11  1  0
 10 33  1  0
 10 34  1  0
 11 12  2  0
 12 13  1  0
 12 35  1  0
 13 14  2  0
 13 36  1  0
 14 15  1  0
 14 17  1  0
 15 16  2  0
 15 37  1  0
 16 11  1  0
 16 38  1  0
 17 18  2  0
 18 19  1  0
 18 39  1  0
 19 20  2  0
 19 40  1  0
 20 21  1  0
 20 41  1  0
 21 22  2  0
 21 42  1  0
 22 17  1  0
 22 23  1  0
 23 24  1  0
 23 25  2  0
 24 43  1  0
 26 27  1  0
 26 44  1  0
 26 45  1  0
 27 28  1  0
 27 46  1  0
 27 47  1  0
 28 48  1  0
 28 49  1  0
 28 50  1  0
 29 51  1  0
M  END
> <Name>
CHEMBL4591010

> <Clean Energy>
46.8871

> <chembl_id>
CHEMBL4591010

> <chembl_pref_name>
None

> <efficacy>
0.136752137

> <Forcefield>
MMFF

> <ForcefieldBase>
MMFF

> <ForcefieldFFML>
<?xml version="1.0" encoding="UTF-8"?>
<!DOCTYPE ffml SYSTEM "Ffml.dtd">
<ffml version="1.0">
<forcefield name="MMFF" derivedFrom="MMFF" base="MMFF">
<atomTypes>
<atomType
name="C100"
element="C"
mass="12.011"
annotation=""/>
<atomType
name="N101"
element="N"
mass="14.007"
annotation=""/>
<atomType
name="O102"
element="O"
mass="16"
annotation=""/>
<atomType
name="H103"
element="H"
mass="1.008"
annotation=""/>
</atomTypes>
<parameters>
</parameters>
</forcefield>
</ffml>

> <Initial Potential Energy>
256.86563

> <Initial RMS Gradient>
38.53329

> <Minimization Criteria>
STEEPD> Minimization exiting with gradient tolerance ( 3.0000000) satisfied.

> <CHARMm Energy>
82.40147

> <Potential Energy>
82.40147

> <RMS Gradient>
0.01342

> <Bond Energy>
6.85351

> <Angle Energy>
8.25843

> <STRBend>
-0.25194

> <Dihedral Energy>
9.04845

> <OOPLane>
0.67069

> <Van der Waals Energy>
55.17665

> <Electrostatic Energy>
2.64568

> <Hydrogen Bond Energy>
0

> <Solvation Free Energy>
0

> <HasGasteigerCharges>
true

> <REMARK99>
REMARK  99  MacroMolecule created from Mol2 file
REMARK  99  CHEMBL4591010
REMARK  99  PROTEIN
REMARK  99  GASTEIGER
REMARK  99
REMARK  99

$$$$
CHEMBL4471255
  SciTegic05292516403D

 32 33  0  0  0  0            999 V2000
    4.3564  -19.9495    0.2206 C   0  0
    4.5578  -21.1901   -0.3292 C   0  0
    5.8669  -21.5766   -0.4516 C   0  0
    6.9287  -20.8443   -0.0927 N   0  0
    6.6369  -19.6465    0.4166 C   0  0
    5.3926  -19.1716    0.5844 N   0  0
    3.0968  -19.3791    0.3895 N   0  0
    1.7773  -19.8570    0.3147 C   0  0
    0.7542  -19.0063   -0.1649 C   0  0
   -0.5612  -19.4852   -0.2700 C   0  0
   -0.8694  -20.7958    0.0850 C   0  0
    0.1282  -21.6415    0.5537 C   0  0
    1.4394  -21.1742    0.6647 C   0  0
    7.9698  -18.5748    0.8965 S   0  0
    9.3682  -19.5027    0.2082 C   0  0
   10.6939  -18.7870    0.3665 C   0  0
   11.7077  -19.4683   -0.2398 O   0  0
   10.9130  -17.7408    0.9563 O   0  0
    6.2698  -23.1017   -1.1301 Cl  0  0
    1.0455  -17.5862   -0.5740 C   0  0
    3.7515  -21.8163   -0.6793 H   0  0
    3.1879  -18.4177    0.7005 H   0  0
   -1.3591  -18.8390   -0.6323 H   0  0
   -1.8931  -21.1537    0.0023 H   0  0
   -0.1262  -22.6588    0.8452 H   0  0
    2.1885  -21.8452    1.0750 H   0  0
    9.4478  -20.4682    0.7179 H   0  0
    9.2001  -19.6524   -0.8634 H   0  0
   11.4257  -20.2987   -0.6700 H   0  0
    0.1632  -17.1035   -1.0078 H   0  0
    1.8356  -17.5608   -1.3315 H   0  0
    1.3526  -16.9976    0.2963 H   0  0
  1  2  2  0
  1  7  1  0
  2  3  1  0
  2 21  1  0
  3  4  2  0
  3 19  1  0
  4  5  1  0
  5  6  2  0
  5 14  1  0
  6  1  1  0
  7  8  1  0
  7 22  1  0
  8  9  2  0
  9 10  1  0
  9 20  1  0
 10 11  2  0
 10 23  1  0
 11 12  1  0
 11 24  1  0
 12 13  2  0
 12 25  1  0
 13  8  1  0
 13 26  1  0
 14 15  1  0
 15 16  1  0
 15 27  1  0
 15 28  1  0
 16 17  1  0
 16 18  2  0
 17 29  1  0
 20 30  1  0
 20 31  1  0
 20 32  1  0
M  END
> <Name>
CHEMBL4471255

> <Clean Energy>
3.08147

> <chembl_id>
CHEMBL4471255

> <chembl_pref_name>
None

> <efficacy>
0.18

> <Forcefield>
MMFF

> <ForcefieldBase>
MMFF

> <ForcefieldFFML>
<?xml version="1.0" encoding="UTF-8"?>
<!DOCTYPE ffml SYSTEM "Ffml.dtd">
<ffml version="1.0">
<forcefield name="MMFF" derivedFrom="MMFF" base="MMFF">
<atomTypes>
<atomType
name="C100"
element="C"
mass="12.011"
annotation=""/>
<atomType
name="N101"
element="N"
mass="14.007"
annotation=""/>
<atomType
name="S102"
element="S"
mass="32.066"
annotation=""/>
<atomType
name="O103"
element="O"
mass="16"
annotation=""/>
<atomType
name="Cl104"
element="Cl"
mass="35.453"
annotation=""/>
<atomType
name="H105"
element="H"
mass="1.008"
annotation=""/>
</atomTypes>
<parameters>
</parameters>
</forcefield>
</ffml>

> <Initial Potential Energy>
-0.3915

> <Initial RMS Gradient>
41.57258

> <Minimization Criteria>
CONJUG> Minimization exiting with gradient tolerance ( 0.0100000) satisfied.

> <CHARMm Energy>
-85.50837

> <Potential Energy>
-85.50837

> <RMS Gradient>
0.00953

> <Bond Energy>
2.28092

> <Angle Energy>
10.76979

> <STRBend>
0.01076

> <Dihedral Energy>
5.23166

> <OOPLane>
0.07171

> <Van der Waals Energy>
35.74679

> <Electrostatic Energy>
-139.61999

> <Hydrogen Bond Energy>
0

> <Solvation Free Energy>
0

> <HasGasteigerCharges>
true

> <REMARK99>
REMARK  99  MacroMolecule created from Mol2 file
REMARK  99  CHEMBL4471255
REMARK  99  PROTEIN
REMARK  99  GASTEIGER
REMARK  99
REMARK  99

$$$$
CHEMBL4453610
  SciTegic05292516403D

 54 56  0  0  0  0            999 V2000
   48.2789   -3.9845    1.4256 C   0  0
   48.0432   -3.3290    0.0570 C   0  0
   48.3080   -4.2409   -1.1491 C   0  0
   35.4170   -3.1295   -0.3403 C   0  0
   35.5760   -4.5177   -0.2884 C   0  0
   36.8472   -5.0706   -0.1333 C   0  0
   37.9706   -4.2463   -0.0403 C   0  0
   37.8157   -2.8607   -0.0974 C   0  0
   36.5426   -2.3070   -0.2518 C   0  0
   34.1503   -2.5572   -0.5198 N   0  0
   33.4882   -2.6507    0.5372 N   0  0
   32.2084   -2.1146    0.3374 C   0  0
   32.0084   -0.7295    0.2717 C   0  0
   30.7279   -0.2093    0.0745 C   0  0
   29.6427   -1.0771   -0.0482 C   0  0
   29.8269   -2.4568    0.0288 C   0  0
   31.1090   -2.9723    0.2263 C   0  0
   39.1545   -4.9131    0.1053 O   0  0
   40.3439   -4.1179    0.0622 C   0  0
   41.5484   -5.0547    0.1303 C   0  0
   42.9173   -4.4154    0.0967 C   0  0
   44.0380   -5.2542    0.1940 C   0  0
   45.3419   -4.7407    0.1645 C   0  0
   45.5579   -3.3747    0.0332 C   0  0
   44.4441   -2.5351   -0.0633 C   0  0
   43.1385   -3.0423   -0.0336 C   0  0
   46.7457   -2.7154   -0.0164 O   0  0
   49.0519   -2.1447   -0.0510 C   0  0
   50.3626   -2.5106    0.0030 O   0  0
   48.7597   -0.9629   -0.1762 O   0  0
   27.9090   -0.3769   -0.3212 Br  0  0
   47.5911   -4.8044    1.6329 H   0  0
   48.1352   -3.2513    2.2284 H   0  0
   49.2905   -4.3895    1.5227 H   0  0
   48.1864   -3.6799   -2.0836 H   0  0
   47.6211   -5.0863   -1.2077 H   0  0
   49.3206   -4.6570   -1.1398 H   0  0
   34.7057   -5.1649   -0.3661 H   0  0
   36.9613   -6.1506   -0.0891 H   0  0
   38.6564   -2.1807   -0.0227 H   0  0
   36.4227   -1.2278   -0.2983 H   0  0
   32.8620   -0.0629    0.3661 H   0  0
   30.5861    0.8665    0.0167 H   0  0
   28.9850   -3.1370   -0.0645 H   0  0
   31.2544   -4.0474    0.2855 H   0  0
   40.3767   -3.5484   -0.8744 H   0  0
   40.3612   -3.4341    0.9190 H   0  0
   41.4664   -5.6541    1.0470 H   0  0
   41.4778   -5.7665   -0.7027 H   0  0
   43.8942   -6.3288    0.2945 H   0  0
   46.1519   -5.4540    0.2466 H   0  0
   44.5919   -1.4611   -0.1659 H   0  0
   42.3172   -2.3349   -0.1158 H   0  0
   50.5256   -3.4657    0.1007 H   0  0
  1 32  1  0
  1 33  1  0
  1 34  1  0
  2  1  1  0
  2 28  1  0
  3  2  1  0
  3 35  1  0
  3 36  1  0
  3 37  1  0
  4  5  2  0
  4 10  1  0
  5  6  1  0
  5 38  1  0
  6  7  2  0
  6 39  1  0
  7  8  1  0
  7 18  1  0
  8  9  2  0
  8 40  1  0
  9  4  1  0
  9 41  1  0
 10 11  2  0
 11 12  1  0
 12 13  2  0
 13 14  1  0
 13 42  1  0
 14 15  2  0
 14 43  1  0
 15 16  1  0
 15 31  1  0
 16 17  2  0
 16 44  1  0
 17 12  1  0
 17 45  1  0
 18 19  1  0
 19 20  1  0
 19 46  1  0
 19 47  1  0
 20 21  1  0
 20 48  1  0
 20 49  1  0
 21 22  2  0
 22 23  1  0
 22 50  1  0
 23 24  2  0
 23 51  1  0
 24 25  1  0
 24 27  1  0
 25 26  2  0
 25 52  1  0
 26 21  1  0
 26 53  1  0
 27  2  1  0
 28 29  1  0
 28 30  2  0
 29 54  1  0
M  END
> <Name>
CHEMBL4453610

> <Clean Energy>
19.5499

> <chembl_id>
CHEMBL4453610

> <chembl_pref_name>
None

> <efficacy>
0.12

> <Forcefield>
MMFF

> <ForcefieldBase>
MMFF

> <ForcefieldFFML>
<?xml version="1.0" encoding="UTF-8"?>
<!DOCTYPE ffml SYSTEM "Ffml.dtd">
<ffml version="1.0">
<forcefield name="MMFF" derivedFrom="MMFF" base="MMFF">
<atomTypes>
<atomType
name="C100"
element="C"
mass="12.011"
annotation=""/>
<atomType
name="N101"
element="N"
mass="14.007"
annotation=""/>
<atomType
name="O102"
element="O"
mass="16"
annotation=""/>
<atomType
name="Br103"
element="Br"
mass="79.904"
annotation=""/>
<atomType
name="H104"
element="H"
mass="1.008"
annotation=""/>
</atomTypes>
<parameters>
</parameters>
</forcefield>
</ffml>

> <Initial Potential Energy>
166.21383

> <Initial RMS Gradient>
30.03146

> <Minimization Criteria>
STEEPD> Minimization exiting with gradient tolerance ( 3.0000000) satisfied.

> <CHARMm Energy>
100.60144

> <Potential Energy>
100.60144

> <RMS Gradient>
0.21518

> <Bond Energy>
6.30379

> <Angle Energy>
24.60493

> <STRBend>
0.13004

> <Dihedral Energy>
4.16967

> <OOPLane>
0.00986

> <Van der Waals Energy>
64.79391

> <Electrostatic Energy>
0.58924

> <Hydrogen Bond Energy>
0

> <Solvation Free Energy>
0

> <HasGasteigerCharges>
true

> <REMARK99>
REMARK  99  MacroMolecule created from Mol2 file
REMARK  99  CHEMBL4453610
REMARK  99  PROTEIN
REMARK  99  GASTEIGER
REMARK  99
REMARK  99

$$$$
CHEMBL489651
  SciTegic05292516403D

 62 65  0  0  0  0            999 V2000
   -3.3532   -7.8753    0.9926 C   0  0
   -3.5560   -9.2501    1.0146 C   0  0
   -2.5818  -10.1157    0.5016 C   0  0
   -2.1540   -7.3485    0.4795 C   0  0
   -1.1865   -8.2210   -0.0620 C   0  0
   -1.3907   -9.6009   -0.0594 C   0  0
   -0.2614  -10.2061   -0.6872 C   0  0
    0.5370   -9.1768   -1.1837 C   0  0
    0.0353   -7.9806   -0.6915 N   0  0
    1.6950   -9.2649   -2.1241 C   0  0
    0.5310   -6.6215   -0.9779 C   0  0
   -0.0699  -11.6428   -0.8757 C   0  0
   -0.9926  -12.3832   -1.2158 O   0  0
    1.2711  -12.2394   -0.6075 C   0  0
    1.6203  -13.4061   -1.2945 C   0  0
    2.8435  -14.0360   -1.0503 C   0  0
    3.7317  -13.5097   -0.1138 C   0  0
    3.3886  -12.3389    0.5678 C   0  0
    2.1616  -11.7075    0.3333 C   0  0
    2.0298   -6.3917   -0.9297 C   0  0
    2.8448   -6.8879    0.1017 C   0  0
    4.2187   -6.6067    0.1322 C   0  0
    4.7893   -5.8231   -0.8722 C   0  0
    3.9928   -5.2985   -1.8888 C   0  0
    2.6234   -5.5744   -1.9116 C   0  0
    4.9267   -7.1968    1.1483 O   0  0
    6.1261   -6.5331    1.5850 C   0  0  2  0  0  0
    7.3732   -7.0854    0.8972 C   0  0
    6.2497   -6.7845    3.0829 C   0  0
    8.4841   -6.5760    0.9831 O   0  0
    7.1523   -8.2170    0.1866 O   0  0
    4.9486  -14.0335    0.2225 O   0  0
    5.2623  -15.3201   -0.3002 C   0  0
   -4.2362   -6.9345    1.4489 O   0  0
   -5.5940   -7.3339    1.6268 C   0  0
   -5.7359   -8.1681    2.6828 F   0  0
   -6.0994   -7.9270    0.5212 F   0  0
   -6.3504   -6.2345    1.8767 F   0  0
   -4.4659   -9.6986    1.4108 H   0  0
   -2.7707  -11.1892    0.4997 H   0  0
   -1.9976   -6.2737    0.4788 H   0  0
    1.6873   -8.4439   -2.8471 H   0  0
    1.6511  -10.1890   -2.7098 H   0  0
    2.6435   -9.2589   -1.5804 H   0  0
    0.1327   -6.3826   -1.9718 H   0  0
    0.0775   -5.9372   -0.2539 H   0  0
    0.9332  -13.8276   -2.0233 H   0  0
    3.0684  -14.9363   -1.6091 H   0  0
    4.0835  -11.9317    1.3000 H   0  0
    1.9097  -10.8172    0.9035 H   0  0
    2.4127   -7.5023    0.8898 H   0  0
    5.8543   -5.6075   -0.9063 H   0  0
    4.4487   -4.6735   -2.6603 H   0  0
    2.0186   -5.1403   -2.7078 H   0  0
    6.0675   -5.4519    1.4104 H   0  0
    7.1425   -6.3062    3.4981 H   0  0
    6.3073   -7.8582    3.2962 H   0  0
    5.3690   -6.4018    3.6097 H   0  0
    6.2023   -8.4633    0.2276 H   0  0
    6.2229  -15.6277    0.1241 H   0  0
    5.3751  -15.2832   -1.3886 H   0  0
    4.5133  -16.0624   -0.0044 H   0  0
  1  2  2  0
  1 34  1  0
  2  3  1  0
  2 39  1  0
  3  6  2  0
  3 40  1  0
  4  1  1  0
  4 41  1  0
  5  4  2  0
  5  6  1  0
  6  7  1  0
  7  8  2  0
  7 12  1  0
  8  9  1  0
  8 10  1  0
  9  5  1  0
  9 11  1  0
 10 42  1  0
 10 43  1  0
 10 44  1  0
 11 20  1  0
 11 45  1  0
 11 46  1  0
 12 13  2  0
 12 14  1  0
 14 15  2  0
 15 16  1  0
 15 47  1  0
 16 17  2  0
 16 48  1  0
 17 18  1  0
 17 32  1  0
 18 19  2  0
 18 49  1  0
 19 14  1  0
 19 50  1  0
 20 21  2  0
 21 22  1  0
 21 51  1  0
 22 23  2  0
 22 26  1  0
 23 24  1  0
 23 52  1  0
 24 25  2  0
 24 53  1  0
 25 20  1  0
 25 54  1  0
 26 27  1  0
 27 28  1  0
 27 29  1  0
 27 55  1  0
 28 30  2  0
 28 31  1  0
 29 56  1  0
 29 57  1  0
 29 58  1  0
 31 59  1  0
 32 33  1  0
 33 60  1  0
 33 61  1  0
 33 62  1  0
 34 35  1  0
 35 36  1  0
 35 37  1  0
 35 38  1  0
M  END
> <Name>
CHEMBL489651

> <Clean Energy>
83.974098

> <chembl_id>
CHEMBL489651

> <chembl_pref_name>
None

> <efficacy>
0.25

> <Forcefield>
MMFF

> <ForcefieldBase>
MMFF

> <ForcefieldFFML>
<?xml version="1.0" encoding="UTF-8"?>
<!DOCTYPE ffml SYSTEM "Ffml.dtd">
<ffml version="1.0">
<forcefield name="MMFF" derivedFrom="MMFF" base="MMFF">
<atomTypes>
<atomType
name="C100"
element="C"
mass="12.011"
annotation=""/>
<atomType
name="N101"
element="N"
mass="14.007"
annotation=""/>
<atomType
name="O102"
element="O"
mass="16"
annotation=""/>
<atomType
name="F103"
element="F"
mass="18.998"
annotation=""/>
<atomType
name="H104"
element="H"
mass="1.008"
annotation=""/>
</atomTypes>
<parameters>
</parameters>
</forcefield>
</ffml>

> <Initial Potential Energy>
254.54857

> <Initial RMS Gradient>
30.28923

> <Minimization Criteria>
STEEPD> Minimization exiting with gradient tolerance ( 3.0000000) satisfied.

> <CHARMm Energy>
115.45364

> <Potential Energy>
115.45364

> <RMS Gradient>
0.04547

> <Bond Energy>
8.32926

> <Angle Energy>
29.67769

> <STRBend>
0.22216

> <Dihedral Energy>
10.0027

> <OOPLane>
0.26155

> <Van der Waals Energy>
69.5419

> <Electrostatic Energy>
-2.58163

> <Hydrogen Bond Energy>
0

> <Solvation Free Energy>
0

> <HasGasteigerCharges>
true

> <REMARK99>
REMARK  99  MacroMolecule created from Mol2 file
REMARK  99  CHEMBL489651
REMARK  99  PROTEIN
REMARK  99  GASTEIGER
REMARK  99
REMARK  99

$$$$
CHEMBL486764
  SciTegic05292516403D

 41 42  0  0  0  0            999 V2000
   -5.9560   -2.5853    0.0590 C   0  0
   -5.8924   -3.7857   -0.6424 C   0  0
   -4.6782   -4.2372   -1.1465 C   0  0
   -3.5159   -3.4846   -0.9497 C   0  0
   -3.5611   -2.2820   -0.2384 C   0  0
   -4.7931   -1.8240    0.2715 C   0  0
   -2.4859   -1.4687   -0.0002 O   0  0
   -7.3205   -4.7107   -0.8909 Cl  0  0
   -1.1542   -1.9670   -0.2360 C   0  0  1  0  0  0
   -0.2516   -0.7355   -0.3471 C   0  0
   -0.6793   -2.8300    0.9453 C   0  0
   -0.2159   -4.2004    0.5053 C   0  0
   -0.9804   -5.3393    0.7923 C   0  0
   -0.5571   -6.5997    0.3681 C   0  0
    0.6345   -6.7341   -0.3417 C   0  0
    1.4063   -5.6091   -0.6250 C   0  0
    0.9854   -4.3476   -0.2026 C   0  0
   -0.9298    0.4390   -0.2984 O   0  0
    0.9634   -0.7789   -0.4803 O   0  0
   -4.9074   -0.5169    1.0264 C   0  0
   -5.0950    0.6685    0.0782 C   0  0
   -5.1856    1.9803    0.8413 C   0  0
   -6.9130   -2.2375    0.4421 H   0  0
   -4.6256   -5.1718   -1.6996 H   0  0
   -2.5987   -3.8763   -1.3770 H   0  0
   -1.0899   -2.4484   -1.2181 H   0  0
    0.1499   -2.3595    1.4897 H   0  0
   -1.4813   -2.9425    1.6861 H   0  0
   -1.9123   -5.2551    1.3477 H   0  0
   -1.1554   -7.4785    0.5951 H   0  0
    0.9655   -7.7164   -0.6686 H   0  0
    2.3403   -5.7138   -1.1715 H   0  0
    1.6068   -3.4811   -0.4261 H   0  0
   -1.8897    0.2571   -0.1912 H   0  0
   -5.7525   -0.5720    1.7250 H   0  0
   -4.0201   -0.3712    1.6549 H   0  0
   -4.2618    0.7253   -0.6323 H   0  0
   -6.0072    0.5339   -0.5157 H   0  0
   -5.3232    2.8143    0.1461 H   0  0
   -4.2715    2.1637    1.4150 H   0  0
   -6.0322    1.9730    1.5352 H   0  0
  1  2  2  0
  1 23  1  0
  2  3  1  0
  2  8  1  0
  3  4  2  0
  3 24  1  0
  4  5  1  0
  4 25  1  0
  5  6  2  0
  5  7  1  0
  6  1  1  0
  6 20  1  0
  7  9  1  0
  9 10  1  0
  9 11  1  0
  9 26  1  0
 10 18  1  0
 10 19  2  0
 11 12  1  0
 11 27  1  0
 11 28  1  0
 12 13  2  0
 13 14  1  0
 13 29  1  0
 14 15  2  0
 14 30  1  0
 15 16  1  0
 15 31  1  0
 16 17  2  0
 16 32  1  0
 17 12  1  0
 17 33  1  0
 18 34  1  0
 20 21  1  0
 20 35  1  0
 20 36  1  0
 21 22  1  0
 21 37  1  0
 21 38  1  0
 22 39  1  0
 22 40  1  0
 22 41  1  0
M  END
> <Name>
CHEMBL486764

> <Clean Energy>
18.1539

> <chembl_id>
CHEMBL486764

> <chembl_pref_name>
None

> <efficacy>
0.2

> <Forcefield>
MMFF

> <ForcefieldBase>
MMFF

> <ForcefieldFFML>
<?xml version="1.0" encoding="UTF-8"?>
<!DOCTYPE ffml SYSTEM "Ffml.dtd">
<ffml version="1.0">
<forcefield name="MMFF" derivedFrom="MMFF" base="MMFF">
<atomTypes>
<atomType
name="C100"
element="C"
mass="12.011"
annotation=""/>
<atomType
name="O101"
element="O"
mass="16"
annotation=""/>
<atomType
name="Cl102"
element="Cl"
mass="35.453"
annotation=""/>
<atomType
name="H103"
element="H"
mass="1.008"
annotation=""/>
</atomTypes>
<parameters>
</parameters>
</forcefield>
</ffml>

> <Initial Potential Energy>
117.76462

> <Initial RMS Gradient>
27.94197

> <Minimization Criteria>
CONJUG> Minimization exiting with gradient tolerance ( 0.0100000) satisfied.

> <CHARMm Energy>
49.34063

> <Potential Energy>
49.34063

> <RMS Gradient>
0.0086

> <Bond Energy>
4.41691

> <Angle Energy>
10.05006

> <STRBend>
0.46023

> <Dihedral Energy>
-3.37116

> <OOPLane>
0.00864

> <Van der Waals Energy>
43.58853

> <Electrostatic Energy>
-5.81259

> <Hydrogen Bond Energy>
0

> <Solvation Free Energy>
0

> <HasGasteigerCharges>
true

> <REMARK99>
REMARK  99  MacroMolecule created from Mol2 file
REMARK  99  CHEMBL486764
REMARK  99  PROTEIN
REMARK  99  GASTEIGER
REMARK  99
REMARK  99

$$$$
CHEMBL2338487
  SciTegic05292516403D

 41 43  0  0  0  0            999 V2000
    5.9071   -4.2605    0.3898 C   0  0
    5.1619   -4.9026   -0.6013 C   0  0
    4.3707   -4.1564   -1.4802 C   0  0
    4.2400   -2.7780   -1.3065 C   0  0
    4.8941   -2.1409   -0.2531 C   0  0
    5.7478   -2.8838    0.5710 C   0  0
    3.5590    0.2612   -0.5413 S   0  0
    4.7264   -0.7682    0.0742 N   0  0
    1.9956   -0.3679    0.0167 C   0  0
    0.8083    0.0883   -0.5688 C   0  0
   -0.4204   -0.4406   -0.1530 C   0  0
   -0.4598   -1.4126    0.8437 C   0  0
    0.7145   -1.8503    1.4492 C   0  0
    1.9423   -1.3213    1.0455 C   0  0
    5.1529   -6.2745   -0.7092 O   0  0
    3.2967   -6.5525    0.8507 C   0  0
    3.9719   -6.8691   -0.3268 C   0  0
    3.4391   -7.8503   -1.1565 C   0  0
    2.2289   -8.4372   -0.8055 C   0  0
    1.6053   -8.0330    0.3678 C   0  0
    2.1161   -7.1063    1.2136 N   0  0
    1.5194   -9.6324   -1.8112 Cl  0  0
    3.6098    0.1681   -1.9835 O   0  0
    3.7611    1.5146    0.1536 O   0  0
   -1.9679   -2.0710    1.3398 Cl  0  0
    0.7438    1.3260   -1.7713 Cl  0  0
    6.7243   -4.8719    1.3012 O   0  0
    7.5540   -5.9018    0.7686 C   0  0
    3.8252   -4.6489   -2.2819 H   0  0
    3.6029   -2.2409   -2.0022 H   0  0
    6.2862   -2.4020    1.3836 H   0  0
    5.3314   -0.3361    0.7698 H   0  0
   -1.3475   -0.0897   -0.6030 H   0  0
    0.6813   -2.6015    2.2358 H   0  0
    2.8396   -1.6660    1.5512 H   0  0
    3.6900   -5.8265    1.5562 H   0  0
    3.9520   -8.1342   -2.0698 H   0  0
    0.6506   -8.4487    0.6735 H   0  0
    8.4517   -5.9589    1.3918 H   0  0
    7.8753   -5.6934   -0.2581 H   0  0
    7.0467   -6.8685    0.8329 H   0  0
  1  2  1  0
  1  6  2  0
  1 27  1  0
  2  3  2  0
  2 15  1  0
  3  4  1  0
  3 29  1  0
  4  5  2  0
  4 30  1  0
  5  6  1  0
  5  8  1  0
  6 31  1  0
  7  8  1  0
  7  9  1  0
  7 23  2  0
  7 24  2  0
  8 32  1  0
  9 10  1  0
  9 14  2  0
 10 11  2  0
 10 26  1  0
 11 12  1  0
 11 33  1  0
 12 13  2  0
 12 25  1  0
 13 14  1  0
 13 34  1  0
 14 35  1  0
 15 17  1  0
 16 17  1  0
 16 21  2  0
 16 36  1  0
 17 18  2  0
 18 19  1  0
 18 37  1  0
 19 20  2  0
 19 22  1  0
 20 21  1  0
 20 38  1  0
 27 28  1  0
 28 39  1  0
 28 40  1  0
 28 41  1  0
M  END
> <Name>
CHEMBL2338487

> <Clean Energy>
37.215698

> <chembl_id>
CHEMBL2338487

> <chembl_pref_name>
None

> <efficacy>
0

> <Forcefield>
MMFF

> <ForcefieldBase>
MMFF

> <ForcefieldFFML>
<?xml version="1.0" encoding="UTF-8"?>
<!DOCTYPE ffml SYSTEM "Ffml.dtd">
<ffml version="1.0">
<forcefield name="MMFF" derivedFrom="MMFF" base="MMFF">
<atomTypes>
<atomType
name="C100"
element="C"
mass="12.011"
annotation=""/>
<atomType
name="S101"
element="S"
mass="32.066"
annotation=""/>
<atomType
name="N102"
element="N"
mass="14.007"
annotation=""/>
<atomType
name="O103"
element="O"
mass="16"
annotation=""/>
<atomType
name="Cl104"
element="Cl"
mass="35.453"
annotation=""/>
<atomType
name="H105"
element="H"
mass="1.008"
annotation=""/>
</atomTypes>
<parameters>
</parameters>
</forcefield>
</ffml>

> <Initial Potential Energy>
680.07804

> <Initial RMS Gradient>
346.6715

> <Minimization Criteria>
STEEPD> Minimization exiting with gradient tolerance ( 3.0000000) satisfied.

> <CHARMm Energy>
26.60292

> <Potential Energy>
26.60292

> <RMS Gradient>
0.07642

> <Bond Energy>
3.86154

> <Angle Energy>
19.74539

> <STRBend>
0.27524

> <Dihedral Energy>
10.4101

> <OOPLane>
0.09988

> <Van der Waals Energy>
56.90492

> <Electrostatic Energy>
-64.69414

> <Hydrogen Bond Energy>
0

> <Solvation Free Energy>
0

> <HasGasteigerCharges>
true

> <REMARK99>
REMARK  99  MacroMolecule created from Mol2 file
REMARK  99  CHEMBL2338487
REMARK  99  PROTEIN
REMARK  99  GASTEIGER
REMARK  99
REMARK  99

$$$$
CHEMBL4469716
  SciTegic05292516403D

 62 65  0  0  0  0            999 V2000
   17.7287  -11.4923    0.1696 C   0  0
   17.9509  -12.6313    0.9421 C   0  0
   19.2379  -13.1704    1.0590 C   0  0
   18.7912  -10.8743   -0.5080 C   0  0
   20.1029  -11.3781   -0.3740 C   0  0
   20.3001  -12.5216    0.4006 C   0  0
   21.6482  -12.8286    0.3253 N   0  0
   22.3256  -11.8538   -0.3820 C   0  0
   21.3790  -10.9680   -0.8771 C   0  0
   21.6534   -9.7981   -1.7565 C   0  0
   23.8068  -11.8578   -0.5653 C   0  0
   16.3741  -10.9005    0.0233 C   0  0
   16.0003  -10.4652   -1.0600 O   0  0
   15.6127  -10.8095    1.1712 N   0  0
   22.2514  -14.0279    0.9037 C   0  0
   22.0341  -15.2711    0.0659 C   0  0
   22.0175  -15.2436   -1.3383 C   0  0
   21.8430  -16.4136   -2.0759 C   0  0
   21.6755  -17.6297   -1.4193 C   0  0
   21.7076  -17.6928   -0.0208 C   0  0
   21.8943  -16.5094    0.7114 C   0  0
   14.3044  -10.1270    1.1788 C   0  0  1  0  0  0
   13.1962  -11.0357    0.6094 C   0  0
   21.5241  -19.0021    0.7035 C   0  0
   20.3512  -19.0244    1.3998 F   0  0
   22.5113  -19.2518    1.6136 F   0  0
   21.5043  -20.0928   -0.1146 F   0  0
   12.0008  -10.2749    0.0754 C   0  0
   12.0993   -9.5706   -1.1341 C   0  0
   11.0060   -8.8599   -1.6349 C   0  0
    9.8088   -8.8563   -0.9268 C   0  0
    9.6888   -9.5540    0.2684 C   0  0
   10.7823  -10.2643    0.7681 C   0  0
    8.7182   -8.1729   -1.3815 O   0  0
   14.0448   -9.6259    2.6025 C   0  0
   14.7974   -8.9170    3.2592 O   0  0
   12.8764  -10.0032    3.1534 O   0  0
   17.1256  -13.1368    1.4366 H   0  0
   19.4006  -14.0724    1.6413 H   0  0
   18.6047   -9.9987   -1.1215 H   0  0
   20.7308   -9.3156   -2.0920 H   0  0
   22.2080  -10.1103   -2.6475 H   0  0
   22.2487   -9.0520   -1.2202 H   0  0
   24.1360  -11.0100   -1.1738 H   0  0
   24.1348  -12.7729   -1.0678 H   0  0
   24.3130  -11.7848    0.4026 H   0  0
   16.0175  -11.1218    2.0475 H   0  0
   23.3246  -13.8604    1.0358 H   0  0
   21.8183  -14.1446    1.9042 H   0  0
   22.1090  -14.3000   -1.8740 H   0  0
   21.8511  -16.3848   -3.1644 H   0  0
   21.5375  -18.5361   -2.0082 H   0  0
   21.9137  -16.5570    1.8008 H   0  0
   14.4018   -9.2305    0.5534 H   0  0
   13.5899  -11.6365   -0.2218 H   0  0
   12.8745  -11.7724    1.3568 H   0  0
   13.0317   -9.5781   -1.6976 H   0  0
   11.1107   -8.3239   -2.5728 H   0  0
    8.7482   -9.5468    0.8103 H   0  0
   10.6775  -10.8082    1.7041 H   0  0
    8.9668   -7.7383   -2.2138 H   0  0
   12.8353   -9.5164    4.0046 H   0  0
  1  2  2  0
  1 12  1  0
  2  3  1  0
  2 38  1  0
  3  6  2  0
  3 39  1  0
  4  1  1  0
  4 40  1  0
  5  4  2  0
  5  6  1  0
  6  7  1  0
  7  8  1  0
  7 15  1  0
  8  9  2  0
  8 11  1  0
  9  5  1  0
  9 10  1  0
 10 41  1  0
 10 42  1  0
 10 43  1  0
 11 44  1  0
 11 45  1  0
 11 46  1  0
 12 13  2  0
 12 14  1  0
 14 47  1  0
 15 16  1  0
 15 48  1  0
 15 49  1  0
 16 17  2  0
 17 18  1  0
 17 50  1  0
 18 19  2  0
 18 51  1  0
 19 20  1  0
 19 52  1  0
 20 21  2  0
 20 24  1  0
 21 16  1  0
 21 53  1  0
 22 14  1  0
 22 23  1  0
 22 35  1  0
 22 54  1  0
 23 28  1  0
 23 55  1  0
 23 56  1  0
 24 25  1  0
 24 26  1  0
 24 27  1  0
 28 29  2  0
 29 30  1  0
 29 57  1  0
 30 31  2  0
 30 58  1  0
 31 32  1  0
 31 34  1  0
 32 33  2  0
 32 59  1  0
 33 28  1  0
 33 60  1  0
 34 61  1  0
 35 36  2  0
 35 37  1  0
 37 62  1  0
M  END
> <Name>
CHEMBL4469716

> <Clean Energy>
68.107498

> <chembl_id>
CHEMBL4469716

> <chembl_pref_name>
None

> <efficacy>
0.44

> <Forcefield>
MMFF

> <ForcefieldBase>
MMFF

> <ForcefieldFFML>
<?xml version="1.0" encoding="UTF-8"?>
<!DOCTYPE ffml SYSTEM "Ffml.dtd">
<ffml version="1.0">
<forcefield name="MMFF" derivedFrom="MMFF" base="MMFF">
<atomTypes>
<atomType
name="C100"
element="C"
mass="12.011"
annotation=""/>
<atomType
name="N101"
element="N"
mass="14.007"
annotation=""/>
<atomType
name="O102"
element="O"
mass="16"
annotation=""/>
<atomType
name="F103"
element="F"
mass="18.998"
annotation=""/>
<atomType
name="H104"
element="H"
mass="1.008"
annotation=""/>
</atomTypes>
<parameters>
</parameters>
</forcefield>
</ffml>

> <Initial Potential Energy>
284.63352

> <Initial RMS Gradient>
38.4677

> <Minimization Criteria>
STEEPD> Minimization exiting with gradient tolerance ( 3.0000000) satisfied.

> <CHARMm Energy>
87.79652

> <Potential Energy>
87.79652

> <RMS Gradient>
0.01852

> <Bond Energy>
7.98241

> <Angle Energy>
10.25069

> <STRBend>
0.34438

> <Dihedral Energy>
8.62483

> <OOPLane>
0.14426

> <Van der Waals Energy>
61.20447

> <Electrostatic Energy>
-0.75451

> <Hydrogen Bond Energy>
0

> <Solvation Free Energy>
0

> <HasGasteigerCharges>
true

> <REMARK99>
REMARK  99  MacroMolecule created from Mol2 file
REMARK  99  CHEMBL4469716
REMARK  99  PROTEIN
REMARK  99  GASTEIGER
REMARK  99
REMARK  99

$$$$
CHEMBL491820
  SciTegic05292516403D

 49 50  0  0  0  0            999 V2000
   19.0454   -6.7716   -0.9056 C   0  0
   19.9172   -7.1135    0.2758 C   0  0
   21.0662   -6.5275    0.6683 C   0  0
   21.7526   -5.3876   -0.0326 C   0  0
   21.7894   -7.0176    1.8976 C   0  0
    8.4222   -5.0548    0.2832 C   0  0
    8.8440   -6.1870   -0.4113 C   0  0
   10.1887   -6.3325   -0.7514 C   0  0
   11.1171   -5.3419   -0.4026 C   0  0
   10.6781   -4.2074    0.2952 C   0  0
    9.3343   -4.0637    0.6354 C   0  0
   12.5780   -5.4989   -0.7408 C   0  0
   13.3660   -6.0817    0.4372 C   0  0
   14.8496   -6.1778    0.1362 C   0  0
   15.2985   -7.3723   -0.4655 C   0  0
   16.6419   -7.5744   -0.7909 C   0  0
   17.5878   -6.5694   -0.5139 C   0  0
   17.1445   -5.3843    0.1165 C   0  0
   15.7817   -5.1553    0.4200 C   0  0
   15.3221   -3.8455    1.0120 C   0  0
   16.2729   -3.1467    1.6700 O   0  0
   14.1774   -3.4297    0.9431 O   0  0
   18.0518   -4.4091    0.4702 O   0  0
   17.1248   -8.7150   -1.3754 O   0  0
   16.2130   -9.7709   -1.6507 C   0  0
   19.3788   -5.8723   -1.4329 H   0  0
   19.1491   -7.5736   -1.6453 H   0  0
   19.5387   -7.9537    0.8616 H   0  0
   22.7795   -5.6684   -0.2899 H   0  0
   21.7890   -4.5116    0.6234 H   0  0
   21.2610   -5.0860   -0.9594 H   0  0
   21.8851   -6.2073    2.6279 H   0  0
   22.7921   -7.3689    1.6330 H   0  0
   21.2656   -7.8453    2.3872 H   0  0
    7.3764   -4.9427    0.5510 H   0  0
    8.1198   -6.9513   -0.6847 H   0  0
   10.5099   -7.2215   -1.2882 H   0  0
   11.3870   -3.4310    0.5804 H   0  0
    8.9987   -3.1818    1.1755 H   0  0
   12.6822   -6.1475   -1.6208 H   0  0
   12.9815   -4.5274   -1.0516 H   0  0
   13.1956   -5.5271    1.3667 H   0  0
   12.9835   -7.0871    0.6650 H   0  0
   14.5587   -8.1406   -0.6763 H   0  0
   17.1704   -3.5059    1.4976 H   0  0
   18.9595   -4.7533    0.3697 H   0  0
   15.4524   -9.4560   -2.3725 H   0  0
   15.7558  -10.1474   -0.7298 H   0  0
   16.7791  -10.5920   -2.1009 H   0  0
  1  2  1  0
  1 26  1  0
  1 27  1  0
  2  3  2  0
  2 28  1  0
  3  4  1  0
  3  5  1  0
  4 29  1  0
  4 30  1  0
  4 31  1  0
  5 32  1  0
  5 33  1  0
  5 34  1  0
  6  7  2  0
  6 35  1  0
  7  8  1  0
  7 36  1  0
  8  9  2  0
  8 37  1  0
  9 10  1  0
  9 12  1  0
 10 11  2  0
 10 38  1  0
 11  6  1  0
 11 39  1  0
 12 13  1  0
 12 40  1  0
 12 41  1  0
 13 14  1  0
 13 42  1  0
 13 43  1  0
 14 15  2  0
 15 16  1  0
 15 44  1  0
 16 17  2  0
 16 24  1  0
 17  1  1  0
 17 18  1  0
 18 19  2  0
 18 23  1  0
 19 14  1  0
 19 20  1  0
 20 21  1  0
 20 22  2  0
 21 45  1  0
 23 46  1  0
 24 25  1  0
 25 47  1  0
 25 48  1  0
 25 49  1  0
M  END
> <Name>
CHEMBL491820

> <Clean Energy>
44.984501

> <chembl_id>
CHEMBL491820

> <chembl_pref_name>
AMORFRUTIN A

> <efficacy>
0.39

> <Forcefield>
MMFF

> <ForcefieldBase>
MMFF

> <ForcefieldFFML>
<?xml version="1.0" encoding="UTF-8"?>
<!DOCTYPE ffml SYSTEM "Ffml.dtd">
<ffml version="1.0">
<forcefield name="MMFF" derivedFrom="MMFF" base="MMFF">
<atomTypes>
<atomType
name="C100"
element="C"
mass="12.011"
annotation=""/>
<atomType
name="O101"
element="O"
mass="16"
annotation=""/>
<atomType
name="H102"
element="H"
mass="1.008"
annotation=""/>
</atomTypes>
<parameters>
</parameters>
</forcefield>
</ffml>

> <Initial Potential Energy>
187.35151

> <Initial RMS Gradient>
27.90914

> <Minimization Criteria>
CONJUG> Minimization exiting with gradient tolerance ( 0.0100000) satisfied.

> <CHARMm Energy>
64.96521

> <Potential Energy>
64.96521

> <RMS Gradient>
0.00997

> <Bond Energy>
6.82017

> <Angle Energy>
15.74945

> <STRBend>
1.06749

> <Dihedral Energy>
-2.80809

> <OOPLane>
0.02049

> <Van der Waals Energy>
59.67581

> <Electrostatic Energy>
-15.56012

> <Hydrogen Bond Energy>
0

> <Solvation Free Energy>
0

> <HasGasteigerCharges>
true

> <REMARK99>
REMARK  99  MacroMolecule created from Mol2 file
REMARK  99  CHEMBL491820
REMARK  99  PROTEIN
REMARK  99  GASTEIGER
REMARK  99
REMARK  99

$$$$
CHEMBL2042809
  SciTegic05292516403D

 62 66  0  0  0  0            999 V2000
   -1.5871  -14.6416   -1.2879 O   0  0
   -2.6938  -13.7888   -1.2390 C   0  0
   -2.3647  -12.5056   -0.5283 C   0  0  2  0  0  0
   -1.1190  -12.9438    0.1925 C   0  0
   -0.6445  -14.1417   -0.3965 C   0  0
    0.6019  -14.6961   -0.0772 C   0  0
    1.3568  -13.9900    0.8874 C   0  0
    0.8499  -12.8453    1.5326 C   0  0
   -0.3839  -12.3198    1.1770 C   0  0
   -0.7889  -11.1935    1.8148 O   0  0
    2.6068  -14.4224    1.2778 O   0  0
    3.6195  -13.5361    0.7883 C   0  0
    1.1354  -15.9190   -0.7842 C   0  0
    2.2639  -16.4991   -0.2406 N   0  0
    3.0253  -17.5803   -0.8365 C   0  0
    4.4093  -17.5945   -0.2128 C   0  0
    5.4160  -16.6844   -0.6761 C   0  0
    6.6409  -16.6075    0.0298 C   0  0
    6.8575  -17.4263    1.1407 C   0  0
    5.8851  -18.3220    1.5753 C   0  0
    4.6538  -18.4098    0.9216 C   0  0
    3.6173  -19.3569    1.4677 C   0  0
    7.6407  -15.7067   -0.3722 C   0  0
    7.4627  -14.8782   -1.4773 C   0  0
    6.2739  -14.9423   -2.1855 C   0  0
    5.2660  -15.8262   -1.7946 C   0  0
    6.0409  -13.9293   -3.5569 Cl  0  0
    0.6067  -16.3481   -1.8023 O   0  0
   -3.5729  -12.0734    0.3044 C   0  0
   -4.9401  -12.2627   -0.3090 C   0  0
   -5.0517  -13.2397   -1.2393 C   0  0
   -3.9461  -14.1227   -1.5830 C   0  0
   -6.2182  -13.5579   -1.9066 O   0  0
   -6.1369  -11.4217    0.0413 C   0  0
   -5.9924  -10.3093    1.0447 C   0  0
   -7.2237  -11.6373   -0.5053 O   0  0
   -3.4477  -11.4941    1.3864 O   0  0
   -2.0231  -11.3826   -1.5216 C   0  0
    1.4299  -12.3551    2.3110 H   0  0
   -1.7705  -11.1642    1.8302 H   0  0
    4.5899  -13.9997    0.9877 H   0  0
    3.5961  -12.5756    1.3126 H   0  0
    3.5290  -13.3867   -0.2934 H   0  0
    2.6019  -16.1166    0.6368 H   0  0
    2.4758  -18.5097   -0.6620 H   0  0
    3.0579  -17.4645   -1.9240 H   0  0
    7.8003  -17.3821    1.6837 H   0  0
    6.1030  -18.9483    2.4395 H   0  0
    3.9799  -19.8817    2.3583 H   0  0
    3.3682  -20.1180    0.7215 H   0  0
    2.7141  -18.8107    1.7575 H   0  0
    8.5833  -15.6533    0.1708 H   0  0
    8.2620  -14.2066   -1.7819 H   0  0
    4.3496  -15.8345   -2.3795 H   0  0
   -4.1608  -15.0833   -2.0416 H   0  0
   -6.9543  -12.9576   -1.6230 H   0  0
   -5.1834   -9.6353    0.7522 H   0  0
   -5.8228  -10.7224    2.0417 H   0  0
   -6.9185   -9.7259    1.0697 H   0  0
   -1.7092  -10.4747   -0.9922 H   0  0
   -2.8856  -11.1093   -2.1411 H   0  0
   -1.2085  -11.6646   -2.2001 H   0  0
  1  2  1  0
  2  3  1  0
  2 32  2  0
  3  4  1  0
  3 29  1  0
  3 38  1  0
  4  5  2  0
  4  9  1  0
  5  1  1  0
  5  6  1  0
  6  7  2  0
  6 13  1  0
  7  8  1  0
  7 11  1  0
  8  9  2  0
  8 39  1  0
  9 10  1  0
 10 40  1  0
 11 12  1  0
 12 41  1  0
 12 42  1  0
 12 43  1  0
 13 14  1  0
 13 28  2  0
 14 15  1  0
 14 44  1  0
 15 16  1  0
 15 45  1  0
 15 46  1  0
 16 21  1  0
 17 16  2  0
 17 26  1  0
 18 17  1  0
 18 23  1  0
 19 18  2  0
 19 47  1  0
 20 19  1  0
 20 21  2  0
 20 48  1  0
 21 22  1  0
 22 49  1  0
 22 50  1  0
 22 51  1  0
 23 24  2  0
 23 52  1  0
 24 25  1  0
 24 53  1  0
 25 26  2  0
 25 27  1  0
 26 54  1  0
 29 30  1  0
 29 37  2  0
 30 31  2  0
 30 34  1  0
 31 32  1  0
 31 33  1  0
 32 55  1  0
 33 56  1  0
 34 35  1  0
 34 36  2  0
 35 57  1  0
 35 58  1  0
 35 59  1  0
 38 60  1  0
 38 61  1  0
 38 62  1  0
M  END
> <Name>
CHEMBL2042809

> <Clean Energy>
66.530296

> <chembl_id>
CHEMBL2042809

> <chembl_pref_name>
None

> <efficacy>
0.41509434

> <Forcefield>
MMFF

> <ForcefieldBase>
MMFF

> <ForcefieldFFML>
<?xml version="1.0" encoding="UTF-8"?>
<!DOCTYPE ffml SYSTEM "Ffml.dtd">
<ffml version="1.0">
<forcefield name="MMFF" derivedFrom="MMFF" base="MMFF">
<atomTypes>
<atomType
name="O100"
element="O"
mass="16"
annotation=""/>
<atomType
name="C101"
element="C"
mass="12.011"
annotation=""/>
<atomType
name="N102"
element="N"
mass="14.007"
annotation=""/>
<atomType
name="Cl103"
element="Cl"
mass="35.453"
annotation=""/>
<atomType
name="H104"
element="H"
mass="1.008"
annotation=""/>
</atomTypes>
<parameters>
</parameters>
</forcefield>
</ffml>

> <Initial Potential Energy>
227.68602

> <Initial RMS Gradient>
36.834

> <Minimization Criteria>
STEEPD> Minimization exiting with gradient tolerance ( 3.0000000) satisfied.

> <CHARMm Energy>
58.06443

> <Potential Energy>
58.06443

> <RMS Gradient>
0.06385

> <Bond Energy>
11.73165

> <Angle Energy>
26.78959

> <STRBend>
0.51136

> <Dihedral Energy>
14.09737

> <OOPLane>
0.58726

> <Van der Waals Energy>
80.27239

> <Electrostatic Energy>
-75.92519

> <Hydrogen Bond Energy>
0

> <Solvation Free Energy>
0

> <HasGasteigerCharges>
true

> <REMARK99>
REMARK  99  MacroMolecule created from Mol2 file
REMARK  99  CHEMBL2042809
REMARK  99  PROTEIN
REMARK  99  GASTEIGER
REMARK  99
REMARK  99

$$$$
CHEMBL7550
  SciTegic05292516403D

 54 58  0  0  0  0            999 V2000
    0.6768    3.5293   -0.8564 N   0  0
    1.9418    3.7593   -0.3799 C   0  0
    0.5888    5.4768    0.2241 N   0  0
   -0.1248    4.5706   -0.4268 C   0  0
    1.8716    4.9856    0.2666 C   0  0
   -3.2020   -2.2965    1.0895 C   0  0
   -3.9437   -0.4436    1.9499 N   0  0
   -2.8475   -1.0281    1.4930 N   0  0
   -4.8941   -1.3734    1.8207 N   0  0
    3.0180    2.9665   -0.5404 N   0  0
   -4.5075   -2.5511    1.3065 N   0  0
   -2.2533   -3.2597    0.5361 C   0  0
    3.0510    5.5180    0.8160 C   0  0
   -1.1109   -2.8702   -0.2015 C   0  0
    0.3486    2.5171   -1.8509 C   0  0
   -0.7945   -1.4730   -0.5506 C   0  0
    4.1383    3.4810    0.0212 C   0  0
    4.2003    4.7169    0.6797 C   0  0
   -1.5203   -0.7921   -1.5378 C   0  0
    0.2720   -0.8024    0.0639 C   0  0
   -0.0971    1.1791   -1.3062 C   0  0
   -1.5901    4.6505   -0.7171 C   0  0
    0.6182    0.5020   -0.3102 C   0  0
   -1.1762    0.5136   -1.9107 C   0  0
   -2.4853   -4.6313    0.7708 C   0  0
   -0.2352   -3.8789   -0.6619 C   0  0
    3.1371    6.8515    1.4966 C   0  0
    5.3826    2.6470   -0.0915 C   0  0
   -2.3202    5.5965    0.2235 C   0  0
   -0.4769   -5.2320   -0.4118 C   0  0
   -1.6042   -5.6078    0.3047 C   0  0
   -5.8531   -1.1897    2.0979 H   0  0
   -0.4239    2.9471   -2.4993 H   0  0
    1.2320    2.3682   -2.4842 H   0  0
    5.1468    5.0627    1.0889 H   0  0
   -2.3509   -1.2857   -2.0397 H   0  0
    0.8552   -1.2992    0.8369 H   0  0
   -1.7326    4.9868   -1.7504 H   0  0
   -2.0409    3.6554   -0.6279 H   0  0
    1.4765    0.9637    0.1730 H   0  0
   -1.7471    0.9935   -2.7031 H   0  0
   -3.3618   -4.9404    1.3372 H   0  0
    0.6479   -3.6063   -1.2389 H   0  0
    3.5244    6.7323    2.5135 H   0  0
    2.1534    7.3265    1.5626 H   0  0
    3.8011    7.5172    0.9363 H   0  0
    6.1517    3.1913   -0.6483 H   0  0
    5.1787    1.7098   -0.6193 H   0  0
    5.7642    2.4012    0.9044 H   0  0
   -3.3898    5.6094   -0.0089 H   0  0
   -1.9423    6.6203    0.1304 H   0  0
   -2.2023    5.2867    1.2675 H   0  0
    0.2154   -5.9844   -0.7802 H   0  0
   -1.7990   -6.6579    0.5047 H   0  0
  2  1  1  0
  3  4  2  0
  3  5  1  0
  4  1  1  0
  5  2  2  0
  6 12  1  0
  7  8  2  0
  8  6  1  0
  9  7  1  0
  9 11  1  0
  9 32  1  0
 10  2  1  0
 11  6  2  0
 12 14  2  0
 13  5  1  0
 13 18  2  0
 14 16  1  0
 15  1  1  0
 15 33  1  0
 15 34  1  0
 16 19  2  0
 17 10  2  0
 18 17  1  0
 18 35  1  0
 19 24  1  0
 19 36  1  0
 20 16  1  0
 20 23  2  0
 20 37  1  0
 21 15  1  0
 22  4  1  0
 22 38  1  0
 22 39  1  0
 23 21  1  0
 23 40  1  0
 24 21  2  0
 24 41  1  0
 25 12  1  0
 25 42  1  0
 26 14  1  0
 26 43  1  0
 27 13  1  0
 27 44  1  0
 27 45  1  0
 27 46  1  0
 28 17  1  0
 28 47  1  0
 28 48  1  0
 28 49  1  0
 29 22  1  0
 29 50  1  0
 29 51  1  0
 29 52  1  0
 30 26  2  0
 30 53  1  0
 31 25  2  0
 31 30  1  0
 31 54  1  0
M  END
> <Name>
CHEMBL7550

> <Clean Energy>
68.268402

> <chembl_id>
CHEMBL7550

> <chembl_pref_name>
L-158809

> <efficacy>
0.076086957

> <Forcefield>
MMFF

> <ForcefieldBase>
MMFF

> <ForcefieldFFML>
<?xml version="1.0" encoding="UTF-8"?>
<!DOCTYPE ffml SYSTEM "Ffml.dtd">
<ffml version="1.0">
<forcefield name="MMFF" derivedFrom="MMFF" base="MMFF">
<atomTypes>
<atomType
name="N100"
element="N"
mass="14.007"
annotation=""/>
<atomType
name="C101"
element="C"
mass="12.011"
annotation=""/>
<atomType
name="H102"
element="H"
mass="1.008"
annotation=""/>
</atomTypes>
<parameters>
</parameters>
</forcefield>
</ffml>

> <Initial Potential Energy>
222.73183

> <Initial RMS Gradient>
38.97861

> <Minimization Criteria>
STEEPD> Minimization exiting with gradient tolerance ( 3.0000000) satisfied.

> <CHARMm Energy>
100.82061

> <Potential Energy>
100.82061

> <RMS Gradient>
0.02855

> <Bond Energy>
7.22795

> <Angle Energy>
5.86496

> <STRBend>
-0.0368

> <Dihedral Energy>
7.07865

> <OOPLane>
0.23326

> <Van der Waals Energy>
54.72955

> <Electrostatic Energy>
25.72304

> <Hydrogen Bond Energy>
0

> <Solvation Free Energy>
0

> <HasGasteigerCharges>
true

> <REMARK99>
REMARK  99  MacroMolecule created from Mol2 file
REMARK  99  CHEMBL7550
REMARK  99  PROTEIN
REMARK  99  GASTEIGER
REMARK  99
REMARK  99

$$$$
CHEMBL4443192
  SciTegic05292516403D

 57 59  0  0  0  0            999 V2000
   12.8794  -11.8963    2.0688 C   0  0
   13.3676  -10.8404    1.0811 C   0  0  2  0  0  0
   14.8991  -10.8790    0.9188 C   0  0
   15.3877  -12.1466    0.2028 C   0  0
   16.9153  -12.1593    0.0936 C   0  0
   17.4232  -13.4354   -0.5801 C   0  0
   18.9506  -13.4530   -0.6531 C   0  0
   19.4663  -14.7278   -1.3018 C   0  0
   13.5857  -12.4372    2.9061 O   0  0
   11.5809  -12.2395    1.9472 O   0  0
   12.9124   -9.1750    1.6909 S   0  0
   10.5940   -7.5881    0.5306 S   0  0
   11.2915   -9.0544    1.0626 C   0  0
   10.5277  -10.1218    0.9686 N   0  0
    9.3097   -9.7808    0.4195 C   0  0
    9.1641   -8.4386    0.0825 C   0  0
    8.2602  -10.6735    0.1638 C   0  0
    7.1021  -10.2034   -0.4570 C   0  0
    6.9539   -8.8629   -0.8142 C   0  0
    7.9969   -7.9646   -0.5304 C   0  0
    5.8575   -8.3782   -1.4900 N   0  0
    4.7524   -9.1577   -1.9956 C   0  0
    3.5001   -8.8069   -1.2308 C   0  0
    2.6066   -7.8523   -1.7371 C   0  0
    1.4487   -7.5167   -1.0323 C   0  0
    1.1714   -8.1187    0.2032 C   0  0
    2.0717   -9.0674    0.7138 C   0  0
    3.2279   -9.4026    0.0074 C   0  0
   -0.0831   -7.7797    0.9684 C   0  0
    0.1110   -7.7601    2.3174 F   0  0
   -1.0870   -8.6748    0.7485 F   0  0
   -0.6016   -6.5594    0.6505 F   0  0
   12.9167  -11.0305    0.0999 H   0  0
   15.2321  -10.0135    0.3305 H   0  0
   15.3910  -10.8094    1.8979 H   0  0
   15.0576  -13.0402    0.7443 H   0  0
   14.9461  -12.1951   -0.8000 H   0  0
   17.2502  -11.2845   -0.4767 H   0  0
   17.3531  -12.0776    1.0960 H   0  0
   17.0731  -14.3108   -0.0198 H   0  0
   17.0045  -13.5101   -1.5910 H   0  0
   19.3064  -12.5884   -1.2253 H   0  0
   19.3722  -13.3699    0.3555 H   0  0
   20.5600  -14.7178   -1.3395 H   0  0
   19.0919  -14.8274   -2.3256 H   0  0
   19.1553  -15.6107   -0.7344 H   0  0
   11.0750  -11.5924    1.4015 H   0  0
    8.3504  -11.7217    0.4307 H   0  0
    6.3187  -10.9302   -0.6459 H   0  0
    7.9149   -6.9159   -0.8015 H   0  0
    5.7553   -7.3728   -1.5427 H   0  0
    4.6105   -8.9064   -3.0546 H   0  0
    4.9092  -10.2406   -1.9857 H   0  0
    2.8202   -7.3648   -2.6854 H   0  0
    0.7625   -6.7797   -1.4494 H   0  0
    1.8676   -9.5430    1.6723 H   0  0
    3.9230  -10.1264    0.4299 H   0  0
  1  2  1  0
  1  9  2  0
  1 10  1  0
  2  3  1  0
  2 11  1  0
  2 33  1  0
  3  4  1  0
  3 34  1  0
  3 35  1  0
  4  5  1  0
  4 36  1  0
  4 37  1  0
  5  6  1  0
  5 38  1  0
  5 39  1  0
  6  7  1  0
  6 40  1  0
  6 41  1  0
  7  8  1  0
  7 42  1  0
  7 43  1  0
  8 44  1  0
  8 45  1  0
  8 46  1  0
 10 47  1  0
 11 13  1  0
 12 13  1  0
 12 16  1  0
 13 14  2  0
 14 15  1  0
 15 16  1  0
 15 17  2  0
 16 20  2  0
 17 18  1  0
 17 48  1  0
 18 19  2  0
 18 49  1  0
 19 20  1  0
 19 21  1  0
 20 50  1  0
 21 22  1  0
 21 51  1  0
 22 23  1  0
 22 52  1  0
 22 53  1  0
 23 24  1  0
 23 28  2  0
 24 25  2  0
 24 54  1  0
 25 26  1  0
 25 55  1  0
 26 27  2  0
 26 29  1  0
 27 28  1  0
 27 56  1  0
 28 57  1  0
 29 30  1  0
 29 31  1  0
 29 32  1  0
M  END
> <Name>
CHEMBL4443192

> <Clean Energy>
42.649399

> <chembl_id>
CHEMBL4443192

> <chembl_pref_name>
None

> <efficacy>
0.37037037

> <Forcefield>
MMFF

> <ForcefieldBase>
MMFF

> <ForcefieldFFML>
<?xml version="1.0" encoding="UTF-8"?>
<!DOCTYPE ffml SYSTEM "Ffml.dtd">
<ffml version="1.0">
<forcefield name="MMFF" derivedFrom="MMFF" base="MMFF">
<atomTypes>
<atomType
name="C100"
element="C"
mass="12.011"
annotation=""/>
<atomType
name="O101"
element="O"
mass="16"
annotation=""/>
<atomType
name="S102"
element="S"
mass="32.066"
annotation=""/>
<atomType
name="N103"
element="N"
mass="14.007"
annotation=""/>
<atomType
name="F104"
element="F"
mass="18.998"
annotation=""/>
<atomType
name="H105"
element="H"
mass="1.008"
annotation=""/>
</atomTypes>
<parameters>
</parameters>
</forcefield>
</ffml>

> <Initial Potential Energy>
137.78838

> <Initial RMS Gradient>
26.932

> <Minimization Criteria>
STEEPD> Minimization exiting with gradient tolerance ( 3.0000000) satisfied.

> <CHARMm Energy>
31.69954

> <Potential Energy>
31.69954

> <RMS Gradient>
0.09874

> <Bond Energy>
5.26384

> <Angle Energy>
14.51345

> <STRBend>
-1.35933

> <Dihedral Energy>
-1.28725

> <OOPLane>
0.13457

> <Van der Waals Energy>
47.70057

> <Electrostatic Energy>
-33.26631

> <Hydrogen Bond Energy>
0

> <Solvation Free Energy>
0

> <HasGasteigerCharges>
true

> <REMARK99>
REMARK  99  MacroMolecule created from Mol2 file
REMARK  99  CHEMBL4443192
REMARK  99  PROTEIN
REMARK  99  GASTEIGER
REMARK  99
REMARK  99

$$$$
CHEMBL3398435
  SciTegic05292516403D

 69 73  0  0  0  0            999 V2000
    1.2055   -1.3787    0.6727 C   0  0
    1.3517   -0.1118    1.2310 C   0  0
   -2.7764   -3.3659    0.5121 C   0  0
   -0.0605   -1.9905    0.6181 C   0  0
   -4.8388   -2.1535    0.2957 C   0  0
   -3.6782   -1.1452    0.3434 C   0  0  2  0  0  0
   -3.2462   -0.7004   -1.0670 C   0  0
   -4.1970   -5.7173   -0.0339 O   0  0
   -4.2024   -3.4557    0.2497 N   0  0
   -1.2025   -1.3448    1.1123 C   0  0
    0.2253    0.5348    1.7381 C   0  0
   -1.0330   -0.0725    1.6833 C   0  0
   -6.9576   -5.6952   -0.2278 C   0  0
   -6.1955   -4.5216   -0.1194 O   0  0
   -2.5870   -1.9569    1.0955 C   0  0  2  0  0  0
   -4.8206   -4.6623    0.0215 C   0  0
    8.0306   -3.1486   -0.3425 C   0  0
    8.5429   -1.8507   -0.5193 C   0  0
    8.8092   -4.2651   -0.6566 C   0  0
    7.7064   -0.7073   -0.1788 C   0  0
    6.1390    0.6088    0.4291 C   0  0
    3.7081    0.0273    0.8015 C   0  0
    4.8521    1.0187    1.0483 C   0  0
    6.5674   -0.6967    0.4845 N   0  0
   10.6171   -2.8160   -1.3389 C   0  0
    9.8422   -1.6974   -1.0238 C   0  0
    7.2342    2.7869   -0.5877 C   0  0
    7.0834    1.3636   -0.2364 C   0  0
    2.5151    0.5942    1.3537 O   0  0
   10.1010   -4.0974   -1.1537 C   0  0
    8.0829    0.5226   -0.6435 O   0  0
   -4.3122    0.0493   -1.8161 C   0  0
   -4.5462   -0.0415   -3.0102 O   0  0
   -5.0283    0.9000   -1.0567 O   0  0
   -7.8966   -5.7499   -1.2565 C   0  0
   -8.7184   -6.8710   -1.3756 C   0  0
   -8.6055   -7.9208   -0.4618 C   0  0
   -7.6753   -7.8496    0.5772 C   0  0
   -6.8542   -6.7285    0.7039 C   0  0
    2.0534   -1.9278    0.2758 H   0  0
   -2.4555   -4.1549    1.2003 H   0  0
   -2.2604   -3.5086   -0.4436 H   0  0
   -0.1167   -2.9851    0.1830 H   0  0
   -5.4280   -2.1124    1.2193 H   0  0
   -5.5198   -2.0280   -0.5508 H   0  0
   -3.9745   -0.2639    0.9248 H   0  0
   -2.3751   -0.0386   -1.0192 H   0  0
   -2.9696   -1.5686   -1.6761 H   0  0
    0.3296    1.5201    2.1858 H   0  0
   -1.8835    0.4621    2.0998 H   0  0
   -2.8989   -2.0188    2.1507 H   0  0
    7.0169   -3.2918    0.0372 H   0  0
    8.4096   -5.2656   -0.5137 H   0  0
    3.9310   -0.9278    1.2926 H   0  0
    3.5809   -0.1328   -0.2764 H   0  0
    4.9944    1.1446    2.1288 H   0  0
    4.5527    2.0055    0.6731 H   0  0
   11.6231   -2.6852   -1.7278 H   0  0
   10.2591   -0.7038   -1.1715 H   0  0
    8.2825    3.0950   -0.5258 H   0  0
    6.6565    3.4217    0.0909 H   0  0
    6.8822    2.9651   -1.6082 H   0  0
   10.7047   -4.9673   -1.3976 H   0  0
   -5.6155    1.3660   -1.6936 H   0  0
   -7.9899   -4.9309   -1.9630 H   0  0
   -9.4449   -6.9264   -2.1813 H   0  0
   -9.2422   -8.7958   -0.5589 H   0  0
   -7.5869   -8.6682    1.2870 H   0  0
   -6.1354   -6.6737    1.5166 H   0  0
  1  4  2  0
  1 40  1  0
  2  1  1  0
  3  9  1  0
  3 41  1  0
  3 42  1  0
  4 10  1  0
  4 43  1  0
  5  6  1  0
  5 44  1  0
  5 45  1  0
  6  7  1  0
  6 15  1  0
  6 46  1  0
  7 32  1  0
  7 47  1  0
  7 48  1  0
  9  5  1  0
  9 16  1  0
 10 12  2  0
 11  2  2  0
 11 49  1  0
 12 11  1  0
 12 50  1  0
 13 35  2  0
 14 13  1  0
 15  3  1  0
 15 10  1  0
 15 51  1  0
 16  8  2  0
 16 14  1  0
 17 19  1  0
 17 52  1  0
 18 17  2  0
 19 30  2  0
 19 53  1  0
 20 18  1  0
 20 24  2  0
 21 23  1  0
 21 28  2  0
 22 29  1  0
 22 54  1  0
 22 55  1  0
 23 22  1  0
 23 56  1  0
 23 57  1  0
 24 21  1  0
 25 26  2  0
 25 58  1  0
 26 18  1  0
 26 59  1  0
 27 60  1  0
 27 61  1  0
 27 62  1  0
 28 27  1  0
 28 31  1  0
 29  2  1  0
 30 25  1  0
 30 63  1  0
 31 20  1  0
 32 33  2  0
 32 34  1  0
 34 64  1  0
 35 36  1  0
 35 65  1  0
 36 37  2  0
 36 66  1  0
 37 38  1  0
 37 67  1  0
 38 39  2  0
 38 68  1  0
 39 13  1  0
 39 69  1  0
M  END
> <Name>
CHEMBL3398435

> <Clean Energy>
55.758202

> <chembl_id>
CHEMBL3398435

> <chembl_pref_name>
None

> <efficacy>
0.33

> <Forcefield>
MMFF

> <ForcefieldBase>
MMFF

> <ForcefieldFFML>
<?xml version="1.0" encoding="UTF-8"?>
<!DOCTYPE ffml SYSTEM "Ffml.dtd">
<ffml version="1.0">
<forcefield name="MMFF" derivedFrom="MMFF" base="MMFF">
<atomTypes>
<atomType
name="C100"
element="C"
mass="12.011"
annotation=""/>
<atomType
name="O101"
element="O"
mass="16"
annotation=""/>
<atomType
name="N102"
element="N"
mass="14.007"
annotation=""/>
<atomType
name="H103"
element="H"
mass="1.008"
annotation=""/>
</atomTypes>
<parameters>
</parameters>
</forcefield>
</ffml>

> <Initial Potential Energy>
147.19522

> <Initial RMS Gradient>
28.71808

> <Minimization Criteria>
CONJUG> Minimization exiting with gradient tolerance ( 0.0100000) satisfied.

> <CHARMm Energy>
39.72492

> <Potential Energy>
39.72492

> <RMS Gradient>
0.00967

> <Bond Energy>
7.47791

> <Angle Energy>
28.73636

> <STRBend>
-0.80043

> <Dihedral Energy>
4.30442

> <OOPLane>
0.09601

> <Van der Waals Energy>
65.22473

> <Electrostatic Energy>
-65.31407

> <Hydrogen Bond Energy>
0

> <Solvation Free Energy>
0

> <HasGasteigerCharges>
true

> <REMARK99>
REMARK  99  MacroMolecule created from Mol2 file
REMARK  99  CHEMBL3398435
REMARK  99  PROTEIN
REMARK  99  GASTEIGER
REMARK  99
REMARK  99

$$$$
CHEMBL4438226
  SciTegic05292516403D

 57 59  0  0  0  0            999 V2000
   33.2437  -25.8611    1.3875 C   0  0
   33.0142  -25.1717    0.0369 C   0  0
   33.3009  -26.0509   -1.1864 C   0  0
   20.4371  -24.8124   -0.2534 C   0  0
   20.5371  -26.2085   -0.2608 C   0  0
   21.7839  -26.8387   -0.1461 C   0  0
   22.9649  -26.0887   -0.0334 C   0  0
   22.8647  -24.6911   -0.0309 C   0  0
   21.6141  -24.0649   -0.1464 C   0  0
   19.2021  -24.1472   -0.4158 N   0  0
   18.3942  -24.4730    0.4833 N   0  0
   17.1387  -23.8580    0.2966 C   0  0
   16.9763  -22.4659    0.2813 C   0  0
   15.7047  -21.8916    0.1461 C   0  0
   14.5623  -22.7010    0.0384 C   0  0
   14.7251  -24.0948    0.0525 C   0  0
   15.9982  -24.6622    0.1885 C   0  0
   24.2764  -26.8318    0.0916 C   0  0
   25.5395  -25.9753    0.0402 C   0  0
   26.6805  -26.8342    0.1102 O   0  0
   27.9008  -26.2174    0.0696 C   0  0
   28.9966  -27.0788    0.1308 C   0  0
   30.3057  -26.5827    0.0987 C   0  0
   30.5307  -25.2146    0.0052 C   0  0
   29.4296  -24.3554   -0.0563 C   0  0
   28.1220  -24.8465   -0.0243 C   0  0
   31.7186  -24.5615   -0.0394 O   0  0
   33.9894  -23.9645   -0.0298 C   0  0
   35.3058  -24.2929    0.0192 O   0  0
   33.6679  -22.7868   -0.1193 O   0  0
   13.1861  -22.0862   -0.1239 C   0  0
   13.0717  -20.8631    0.4666 F   0  0
   12.1903  -22.8486    0.4108 F   0  0
   12.8531  -21.9022   -1.4313 F   0  0
   32.5994  -26.7287    1.5386 H   0  0
   33.0312  -25.1687    2.2109 H   0  0
   34.2744  -26.2110    1.5037 H   0  0
   33.1555  -25.4786   -2.1105 H   0  0
   32.6410  -26.9172   -1.2540 H   0  0
   34.3264  -26.4337   -1.1890 H   0  0
   19.6373  -26.8111   -0.3605 H   0  0
   21.8209  -27.9262   -0.1502 H   0  0
   23.7427  -24.0560    0.0565 H   0  0
   21.5549  -22.9790   -0.1525 H   0  0
   17.8506  -21.8264    0.3799 H   0  0
   15.6042  -20.8060    0.1335 H   0  0
   13.8556  -24.7464   -0.0347 H   0  0
   16.1075  -25.7444    0.2110 H   0  0
   24.2714  -27.3954    1.0338 H   0  0
   24.3346  -27.5796   -0.7106 H   0  0
   25.5601  -25.4121   -0.9013 H   0  0
   25.5480  -25.2861    0.8939 H   0  0
   28.8243  -28.1499    0.2040 H   0  0
   31.1084  -27.3065    0.1484 H   0  0
   29.5917  -23.2813   -0.1299 H   0  0
   27.3111  -24.1282   -0.0748 H   0  0
   35.5331  -25.2372    0.0894 H   0  0
  1 35  1  0
  1 36  1  0
  1 37  1  0
  2  1  1  0
  2 28  1  0
  3  2  1  0
  3 38  1  0
  3 39  1  0
  3 40  1  0
  4  5  2  0
  4 10  1  0
  5  6  1  0
  5 41  1  0
  6  7  2  0
  6 42  1  0
  7  8  1  0
  7 18  1  0
  8  9  2  0
  8 43  1  0
  9  4  1  0
  9 44  1  0
 10 11  2  0
 11 12  1  0
 12 13  2  0
 13 14  1  0
 13 45  1  0
 14 15  2  0
 14 46  1  0
 15 16  1  0
 15 31  1  0
 16 17  2  0
 16 47  1  0
 17 12  1  0
 17 48  1  0
 18 19  1  0
 18 49  1  0
 18 50  1  0
 19 20  1  0
 19 51  1  0
 19 52  1  0
 20 21  1  0
 21 22  2  0
 22 23  1  0
 22 53  1  0
 23 24  2  0
 23 54  1  0
 24 25  1  0
 24 27  1  0
 25 26  2  0
 25 55  1  0
 26 21  1  0
 26 56  1  0
 27  2  1  0
 28 29  1  0
 28 30  2  0
 29 57  1  0
 31 32  1  0
 31 33  1  0
 31 34  1  0
M  END
> <Name>
CHEMBL4438226

> <Clean Energy>
32.622002

> <chembl_id>
CHEMBL4438226

> <chembl_pref_name>
None

> <efficacy>
0.09

> <Forcefield>
MMFF

> <ForcefieldBase>
MMFF

> <ForcefieldFFML>
<?xml version="1.0" encoding="UTF-8"?>
<!DOCTYPE ffml SYSTEM "Ffml.dtd">
<ffml version="1.0">
<forcefield name="MMFF" derivedFrom="MMFF" base="MMFF">
<atomTypes>
<atomType
name="C100"
element="C"
mass="12.011"
annotation=""/>
<atomType
name="N101"
element="N"
mass="14.007"
annotation=""/>
<atomType
name="O102"
element="O"
mass="16"
annotation=""/>
<atomType
name="F103"
element="F"
mass="18.998"
annotation=""/>
<atomType
name="H104"
element="H"
mass="1.008"
annotation=""/>
</atomTypes>
<parameters>
</parameters>
</forcefield>
</ffml>

> <Initial Potential Energy>
199.60953

> <Initial RMS Gradient>
29.74213

> <Minimization Criteria>
CONJUG> Minimization exiting with gradient tolerance ( 0.0100000) satisfied.

> <CHARMm Energy>
129.17974

> <Potential Energy>
129.17974

> <RMS Gradient>
0.00975

> <Bond Energy>
7.38233

> <Angle Energy>
25.53364

> <STRBend>
-0.01948

> <Dihedral Energy>
3.3946

> <OOPLane>
0.04072

> <Van der Waals Energy>
65.59825

> <Electrostatic Energy>
27.24969

> <Hydrogen Bond Energy>
0

> <Solvation Free Energy>
0

> <HasGasteigerCharges>
true

> <REMARK99>
REMARK  99  MacroMolecule created from Mol2 file
REMARK  99  CHEMBL4438226
REMARK  99  PROTEIN
REMARK  99  GASTEIGER
REMARK  99
REMARK  99

$$$$
CHEMBL4289861
  SciTegic05292516403D

 66 71  0  0  0  0            999 V2000
   23.1415   -3.0102    0.4942 C   0  0
   23.8318   -3.6723   -0.5068 N   0  0
   23.5949   -1.7748    0.6415 N   0  0
   24.5782   -1.6259   -0.3057 C   0  0
   24.7322   -2.7891   -1.0441 C   0  0
   25.5744   -3.0084   -2.0708 N   0  0
   26.3499   -1.9343   -2.3581 C   0  0
   26.2856   -0.7046   -1.6884 C   0  0
   25.3820   -0.5206   -0.6267 C   0  0
   22.0192   -3.6277    1.2697 C   0  0
   21.4934   -2.7192    2.3706 C   0  0
   25.3014    0.7955    0.0828 C   0  0
   27.3386   -2.1105   -3.4749 C   0  0
   23.5950   -5.0168   -1.0118 C   0  0
   24.7436   -5.9662   -0.7439 C   0  0
   25.4369   -6.5483   -1.8184 C   0  0
   26.5201   -7.4036   -1.5981 C   0  0
   25.1416   -6.2793    0.5647 C   0  0
   26.9234   -7.6933   -0.2936 C   0  0
   26.2321   -7.1315    0.7965 C   0  0
   26.7164   -7.4082    2.2011 C   0  0
   28.1350   -8.4993   -0.0102 C   0  0
   28.0356   -6.6957    2.5189 C   0  0
   29.2736   -6.9712    1.6809 C   0  0
   29.3253   -7.7681    0.5174 C   0  0
   30.5194   -7.8213   -0.2305 C   0  0
   31.6660   -7.1549    0.1941 C   0  0
   31.6352   -6.4128    1.3658 C   0  0
   30.4509   -6.3131    2.0943 C   0  0
   28.1809   -9.8536   -0.1446 C   0  0
   27.0795  -10.7141   -0.6734 C   0  0
   29.3631  -10.7089    0.2603 C   0  0
   25.8035  -10.4162   -0.4419 N   0  0
   25.0708  -11.3954   -0.9867 C   0  0
   25.9182  -12.3028   -1.5698 O   0  0
   27.2400  -11.8247   -1.3193 N   0  0
   23.8547  -11.4909   -0.9534 O   0  0
   26.9321    0.1176   -1.9910 H   0  0
   21.1975   -3.8660    0.5845 H   0  0
   22.3597   -4.5665    1.7210 H   0  0
   20.6826   -3.2141    2.9146 H   0  0
   21.1019   -1.7827    1.9587 H   0  0
   22.2813   -2.4694    3.0894 H   0  0
   24.5626    0.7694    0.8901 H   0  0
   25.0101    1.5840   -0.6183 H   0  0
   26.2722    1.0474    0.5212 H   0  0
   27.1404   -1.3868   -4.2716 H   0  0
   27.2704   -3.1161   -3.9026 H   0  0
   28.3577   -1.9671   -3.1020 H   0  0
   22.6819   -5.4181   -0.5616 H   0  0
   23.4014   -4.9188   -2.0871 H   0  0
   25.1610   -6.3064   -2.8439 H   0  0
   27.0658   -7.8053   -2.4487 H   0  0
   24.6257   -5.8272    1.4099 H   0  0
   25.9567   -7.0796    2.9219 H   0  0
   26.8122   -8.4906    2.3545 H   0  0
   27.8525   -5.6128    2.4731 H   0  0
   28.2863   -6.9320    3.5617 H   0  0
   30.5623   -8.3886   -1.1589 H   0  0
   32.5780   -7.2126   -0.3929 H   0  0
   32.5269   -5.8947    1.7041 H   0  0
   30.4412   -5.6940    2.9902 H   0  0
   29.0267  -11.6475    0.7166 H   0  0
   30.0007  -10.2370    1.0130 H   0  0
   29.9736  -10.9536   -0.6151 H   0  0
   25.4061   -9.6433    0.0589 H   0  0
  1  2  1  0
  1 10  1  0
  2  5  1  0
  2 14  1  0
  3  1  2  0
  4  3  1  0
  4  5  2  0
  5  6  1  0
  6  7  2  0
  7  8  1  0
  7 13  1  0
  8  9  2  0
  8 38  1  0
  9  4  1  0
  9 12  1  0
 10 11  1  0
 10 39  1  0
 10 40  1  0
 11 41  1  0
 11 42  1  0
 11 43  1  0
 12 44  1  0
 12 45  1  0
 12 46  1  0
 13 47  1  0
 13 48  1  0
 13 49  1  0
 14 15  1  0
 14 50  1  0
 14 51  1  0
 15 16  2  0
 16 17  1  0
 16 52  1  0
 17 19  2  0
 17 53  1  0
 18 15  1  0
 18 54  1  0
 19 20  1  0
 19 22  1  0
 20 18  2  0
 20 21  1  0
 21 23  1  0
 21 55  1  0
 21 56  1  0
 22 25  1  0
 22 30  2  0
 23 24  1  0
 23 57  1  0
 23 58  1  0
 24 25  2  0
 25 26  1  0
 26 27  2  0
 26 59  1  0
 27 28  1  0
 27 60  1  0
 28 29  2  0
 28 61  1  0
 29 24  1  0
 29 62  1  0
 30 31  1  0
 30 32  1  0
 31 33  1  0
 32 63  1  0
 32 64  1  0
 32 65  1  0
 33 34  1  0
 33 66  1  0
 34 35  1  0
 34 37  2  0
 35 36  1  0
 36 31  2  0
M  END
> <Name>
CHEMBL4289861

> <Clean Energy>
106.420998

> <chembl_id>
CHEMBL4289861

> <chembl_pref_name>
None

> <efficacy>
0.218423552

> <Forcefield>
MMFF

> <ForcefieldBase>
MMFF

> <ForcefieldFFML>
<?xml version="1.0" encoding="UTF-8"?>
<!DOCTYPE ffml SYSTEM "Ffml.dtd">
<ffml version="1.0">
<forcefield name="MMFF" derivedFrom="MMFF" base="MMFF">
<atomTypes>
<atomType
name="C100"
element="C"
mass="12.011"
annotation=""/>
<atomType
name="N101"
element="N"
mass="14.007"
annotation=""/>
<atomType
name="O102"
element="O"
mass="16"
annotation=""/>
<atomType
name="H103"
element="H"
mass="1.008"
annotation=""/>
</atomTypes>
<parameters>
</parameters>
</forcefield>
</ffml>

> <Initial Potential Energy>
228.25217

> <Initial RMS Gradient>
30.73004

> <Minimization Criteria>
STEEPD> Minimization exiting with gradient tolerance ( 3.0000000) satisfied.

> <CHARMm Energy>
75.82018

> <Potential Energy>
75.82018

> <RMS Gradient>
0.04007

> <Bond Energy>
10.59809

> <Angle Energy>
20.82955

> <STRBend>
-0.43056

> <Dihedral Energy>
10.89154

> <OOPLane>
0.23643

> <Van der Waals Energy>
69.07142

> <Electrostatic Energy>
-35.37628

> <Hydrogen Bond Energy>
0

> <Solvation Free Energy>
0

> <HasGasteigerCharges>
true

> <REMARK99>
REMARK  99  MacroMolecule created from Mol2 file
REMARK  99  CHEMBL4289861
REMARK  99  PROTEIN
REMARK  99  GASTEIGER
REMARK  99
REMARK  99

$$$$
CHEMBL573492
  SciTegic05292516403D

 46 48  0  0  0  0            999 V2000
   18.3821  -16.2650   -0.4296 C   0  0
   19.5444  -16.9002   -0.8911 C   0  0
   20.8122  -16.3760   -0.6069 C   0  0
   20.9361  -15.2112    0.1452 C   0  0
   19.7767  -14.5648    0.5859 C   0  0
   18.5047  -15.0787    0.3000 C   0  0
   22.1017  -14.6129    0.5313 O   0  0
   23.3670  -15.1801    0.1030 C   0  0  1  0  0  0
   24.4183  -14.0283    0.0910 C   0  0
   23.7765  -16.3154    1.0569 C   0  0
   24.6689  -17.3557    0.4094 C   0  0
   24.1607  -18.6145    0.0585 C   0  0
   24.9802  -19.5708   -0.5464 C   0  0
   26.3168  -19.2788   -0.8072 C   0  0
   26.8313  -18.0303   -0.4621 C   0  0
   26.0154  -17.0745    0.1456 C   0  0
   25.0981  -13.8472    1.1454 O   0  5
   24.5128  -13.3981   -1.0074 O   0  0
   17.0592  -16.8960   -0.7389 C   0  0
   15.8201  -16.3883   -0.0144 C   0  0
   14.6887  -17.3942    0.0840 C   0  0
   13.4468  -17.1435   -0.5085 C   0  0
   12.4097  -18.0684   -0.3790 C   0  0
   12.6023  -19.2468    0.3419 C   0  0
   13.8372  -19.5063    0.9333 C   0  0
   14.8745  -18.5837    0.8065 C   0  0
   17.0250  -17.7994   -1.5741 O   0  0
   19.4753  -17.8160   -1.4754 H   0  0
   21.6818  -16.9041   -0.9841 H   0  0
   19.8764  -13.6450    1.1595 H   0  0
   17.6401  -14.5265    0.6557 H   0  0
   23.2917  -15.5278   -0.9353 H   0  0
   24.2722  -15.9422    1.9614 H   0  0
   22.8817  -16.8200    1.4440 H   0  0
   23.1189  -18.8552    0.2545 H   0  0
   24.5678  -20.5383   -0.8166 H   0  0
   26.9611  -20.0161   -1.2795 H   0  0
   27.8708  -17.7914   -0.6681 H   0  0
   26.4356  -16.1030    0.4095 H   0  0
   16.0750  -16.1066    1.0135 H   0  0
   15.4798  -15.4860   -0.5360 H   0  0
   13.2733  -16.2342   -1.0789 H   0  0
   11.4493  -17.8683   -0.8454 H   0  0
   11.7910  -19.9640    0.4364 H   0  0
   13.9934  -20.4289    1.4857 H   0  0
   15.8493  -18.7884    1.2538 H   0  0
  1  2  2  0
  1 19  1  0
  2  3  1  0
  2 28  1  0
  3  4  2  0
  3 29  1  0
  4  5  1  0
  4  7  1  0
  5  6  2  0
  5 30  1  0
  6  1  1  0
  6 31  1  0
  7  8  1  0
  8  9  1  0
  8 10  1  0
  8 32  1  0
  9 17  1  0
  9 18  2  0
 10 11  1  0
 10 33  1  0
 10 34  1  0
 11 12  2  0
 12 13  1  0
 12 35  1  0
 13 14  2  0
 13 36  1  0
 14 15  1  0
 14 37  1  0
 15 16  2  0
 15 38  1  0
 16 11  1  0
 16 39  1  0
 19 20  1  0
 19 27  2  0
 20 40  1  0
 20 41  1  0
 21 20  1  0
 21 22  2  0
 22 23  1  0
 22 42  1  0
 23 24  2  0
 23 43  1  0
 24 25  1  0
 24 44  1  0
 25 26  2  0
 25 45  1  0
 26 21  1  0
 26 46  1  0
M  CHG  1  17  -1
M  END
> <Name>
CHEMBL573492

> <Clean Energy>
13.1672

> <chembl_id>
CHEMBL573492

> <chembl_pref_name>
None

> <efficacy>
0.4

> <Forcefield>
MMFF

> <ForcefieldBase>
MMFF

> <ForcefieldFFML>
<?xml version="1.0" encoding="UTF-8"?>
<!DOCTYPE ffml SYSTEM "Ffml.dtd">
<ffml version="1.0">
<forcefield name="MMFF" derivedFrom="MMFF" base="MMFF">
<atomTypes>
<atomType
name="C100"
element="C"
mass="12.011"
annotation=""/>
<atomType
name="O101"
element="O"
mass="16"
annotation=""/>
<atomType
name="H102"
element="H"
mass="1.008"
annotation=""/>
</atomTypes>
<parameters>
</parameters>
</forcefield>
</ffml>

> <Initial Potential Energy>
208.60789

> <Initial RMS Gradient>
34.58652

> <Minimization Criteria>
CONJUG> Minimization exiting with gradient tolerance ( 0.0100000) satisfied.

> <CHARMm Energy>
135.75796

> <Potential Energy>
135.75796

> <RMS Gradient>
0.00965

> <Bond Energy>
6.86898

> <Angle Energy>
13.41781

> <STRBend>
0.93665

> <Dihedral Energy>
3.04401

> <OOPLane>
0.04088

> <Van der Waals Energy>
57.8871

> <Electrostatic Energy>
53.56253

> <Hydrogen Bond Energy>
0

> <Solvation Free Energy>
0

> <HasGasteigerCharges>
true

> <REMARK99>
REMARK  99  MacroMolecule created from Mol2 file
REMARK  99  CHEMBL573492
REMARK  99  PROTEIN
REMARK  99  GASTEIGER
REMARK  99
REMARK  99

$$$$
CHEMBL5080474
  SciTegic05292516403D

 58 61  0  0  0  0            999 V2000
   11.8775  -29.8589    2.0777 O   0  0
   11.4544  -29.7077    0.6978 S   0  0
   10.4023  -30.5653    0.1712 O   0  0
   15.2593  -24.4747   -1.5135 F   0  0
   15.2572  -25.7354   -2.0261 C   0  0
   16.4180  -25.8759   -2.7230 F   0  0
   14.0998  -27.7847   -1.1073 C   0  0
   13.9024  -28.7994   -0.1561 C   0  0
   14.7217  -28.8125    0.9753 C   0  0
   15.7269  -27.8551    1.1373 C   0  0
   15.9567  -26.8578    0.1691 C   0  0
   15.1064  -26.8021   -0.9570 C   0  0
   14.2540  -25.7473   -2.9521 F   0  0
   17.1496  -25.9364    0.3608 C   0  0
   18.3703  -26.7126    0.3327 N   0  0
   19.6061  -26.1885    0.6399 C   0  0
   20.7177  -27.1826    0.6704 C   0  0
   19.8326  -25.0022    0.8534 O   0  0
   20.5077  -28.5042    1.0806 C   0  0
   21.5501  -29.4392    1.0890 C   0  0
   21.9984  -26.7600    0.2955 C   0  0
   23.0619  -27.6861    0.2947 C   0  0
   22.8220  -29.0076    0.6853 C   0  0
   24.0253  -29.6840    0.5684 N   0  0
   25.0096  -28.8225    0.1457 C   0  0
   24.4388  -27.5856   -0.0402 C   0  0
   24.2523  -31.1010    0.8616 C   0  0
   23.5991  -32.0453   -0.1287 C   0  0
   23.3037  -31.6926   -1.4563 C   0  0
   22.7659  -32.6273   -2.3479 C   0  0
   22.5606  -33.9425   -1.9389 C   0  0
   22.8714  -34.3088   -0.6356 C   0  0
   23.3604  -33.3706    0.2704 C   0  0
   22.7085  -35.5824   -0.2476 F   0  0
   12.8694  -29.8770   -0.3845 C   0  0
   10.9097  -28.0287    0.4766 C   0  0
   13.4730  -27.7602   -2.0006 H   0  0
   14.6013  -29.5813    1.7394 H   0  0
   16.3597  -27.9071    2.0240 H   0  0
   17.2301  -25.1700   -0.4134 H   0  0
   17.0763  -25.4206    1.3251 H   0  0
   18.3138  -27.6651   -0.0015 H   0  0
   19.5278  -28.8298    1.4210 H   0  0
   21.3579  -30.4638    1.3942 H   0  0
   22.1811  -25.7282    0.0029 H   0  0
   26.0297  -29.1588    0.0050 H   0  0
   24.9455  -26.6943   -0.3845 H   0  0
   25.3342  -31.2749    0.8719 H   0  0
   23.8642  -31.2679    1.8735 H   0  0
   23.4837  -30.6809   -1.8205 H   0  0
   22.5275  -32.3242   -3.3653 H   0  0
   22.1938  -34.6943   -2.6306 H   0  0
   23.5787  -33.6940    1.2835 H   0  0
   12.4931  -29.8534   -1.4127 H   0  0
   13.3031  -30.8672   -0.2096 H   0  0
   10.7427  -27.8493   -0.5870 H   0  0
   11.6599  -27.3460    0.8777 H   0  0
    9.9728  -27.9047    1.0245 H   0  0
  2  1  2  0
  2 36  1  0
  3  2  2  0
  5  4  1  0
  5 13  1  0
  6  5  1  0
  7  8  2  0
  7 37  1  0
  8  9  1  0
  8 35  1  0
  9 10  2  0
  9 38  1  0
 10 11  1  0
 10 39  1  0
 11 12  2  0
 11 14  1  0
 12  5  1  0
 12  7  1  0
 14 15  1  0
 14 40  1  0
 14 41  1  0
 15 16  1  0
 15 42  1  0
 16 17  1  0
 16 18  2  0
 17 19  2  0
 19 20  1  0
 19 43  1  0
 20 23  2  0
 20 44  1  0
 21 17  1  0
 21 45  1  0
 22 21  2  0
 22 23  1  0
 23 24  1  0
 24 25  1  0
 24 27  1  0
 25 26  2  0
 25 46  1  0
 26 22  1  0
 26 47  1  0
 27 28  1  0
 27 48  1  0
 27 49  1  0
 28 29  2  0
 29 30  1  0
 29 50  1  0
 30 31  2  0
 30 51  1  0
 31 32  1  0
 31 52  1  0
 32 33  2  0
 32 34  1  0
 33 28  1  0
 33 53  1  0
 35  2  1  0
 35 54  1  0
 35 55  1  0
 36 56  1  0
 36 57  1  0
 36 58  1  0
M  END
> <Name>
CHEMBL5080474

> <Clean Energy>
53.465199

> <chembl_id>
CHEMBL5080474

> <chembl_pref_name>
None

> <efficacy>
0.275403609

> <Forcefield>
MMFF

> <ForcefieldBase>
MMFF

> <ForcefieldFFML>
<?xml version="1.0" encoding="UTF-8"?>
<!DOCTYPE ffml SYSTEM "Ffml.dtd">
<ffml version="1.0">
<forcefield name="MMFF" derivedFrom="MMFF" base="MMFF">
<atomTypes>
<atomType
name="O100"
element="O"
mass="16"
annotation=""/>
<atomType
name="S101"
element="S"
mass="32.066"
annotation=""/>
<atomType
name="F102"
element="F"
mass="18.998"
annotation=""/>
<atomType
name="C103"
element="C"
mass="12.011"
annotation=""/>
<atomType
name="N104"
element="N"
mass="14.007"
annotation=""/>
<atomType
name="H105"
element="H"
mass="1.008"
annotation=""/>
</atomTypes>
<parameters>
</parameters>
</forcefield>
</ffml>

> <Initial Potential Energy>
518.62471

> <Initial RMS Gradient>
210.90071

> <Minimization Criteria>
CONJUG> Minimization exiting with gradient tolerance ( 0.0100000) satisfied.

> <CHARMm Energy>
92.32573

> <Potential Energy>
92.32573

> <RMS Gradient>
0.00918

> <Bond Energy>
7.79975

> <Angle Energy>
8.26721

> <STRBend>
0.58218

> <Dihedral Energy>
6.08985

> <OOPLane>
0.11556

> <Van der Waals Energy>
57.2334

> <Electrostatic Energy>
12.23778

> <Hydrogen Bond Energy>
0

> <Solvation Free Energy>
0

> <HasGasteigerCharges>
true

> <REMARK99>
REMARK  99  MacroMolecule created from Mol2 file
REMARK  99  CHEMBL5080474
REMARK  99  PROTEIN
REMARK  99  GASTEIGER
REMARK  99
REMARK  99

$$$$
CHEMBL5082042
  SciTegic05292516403D

 52 55  0  0  0  0            999 V2000
   10.7465    0.6822    1.1938 F   0  0
   10.2589   -0.5443    1.5242 C   0  0
   10.8912   -0.9020    2.6763 F   0  0
    9.3963   -2.3950    0.0394 C   0  0
    9.5430   -3.3416   -0.9749 C   0  0
   10.7649   -3.4530   -1.6313 C   0  0
   11.8429   -2.6536   -1.2585 C   0  0
   11.7312   -1.7318   -0.2000 C   0  0
   10.4747   -1.5685    0.4276 C   0  0
    8.9490   -0.3518    1.8537 F   0  0
   12.9526   -0.9254    0.1994 C   0  0
   14.1223   -1.7793    0.2487 N   0  0
   15.3690   -1.3306   -0.1159 C   0  0
   16.4396   -2.3586   -0.2029 C   0  0
   15.6177   -0.1587   -0.3685 O   0  0
   16.1613   -3.6716   -0.6159 C   0  0
   17.1829   -4.6187   -0.7717 C   0  0
   17.7547   -1.9582    0.0671 C   0  0
   18.7843   -2.8959   -0.0807 C   0  0
   18.4876   -4.1910   -0.5045 C   0  0
   19.7172   -4.8051   -0.5768 N   0  0
   20.6650   -3.8978   -0.1879 C   0  0
   20.1320   -2.7404    0.1259 N   0  0
   20.0028   -6.1475   -1.0610 C   0  0
   19.9031   -7.2364   -0.0161 C   0  0
   19.7613   -6.9896    1.3597 C   0  0
   19.6667   -8.0437    2.2743 C   0  0
   19.7311   -9.3607    1.8311 C   0  0
   19.8986   -9.6154    0.4773 C   0  0
   19.9831   -8.5737   -0.4432 C   0  0
    8.5835   -4.2058   -1.4204 O   0  0
    7.3089   -4.1391   -0.7930 C   0  0
   19.9827  -10.8826    0.0481 F   0  0
    8.4457   -2.2755    0.5521 H   0  0
   10.8760   -4.1702   -2.4414 H   0  0
   12.7812   -2.7597   -1.8010 H   0  0
   13.1004   -0.1056   -0.5118 H   0  0
   12.8560   -0.5031    1.2026 H   0  0
   14.0129   -2.7150    0.6155 H   0  0
   15.1452   -3.9690   -0.8642 H   0  0
   16.9639   -5.6286   -1.1025 H   0  0
   17.9900   -0.9427    0.3698 H   0  0
   21.7202   -4.1301   -0.1513 H   0  0
   19.3041   -6.3469   -1.8820 H   0  0
   21.0178   -6.1344   -1.4761 H   0  0
   19.7206   -5.9758    1.7529 H   0  0
   19.5298   -7.8259    3.3314 H   0  0
   19.6528  -10.1831    2.5324 H   0  0
   20.1140   -8.8242   -1.4932 H   0  0
    6.6662   -4.8914   -1.2604 H   0  0
    6.8440   -3.1600   -0.9487 H   0  0
    7.3810   -4.3780    0.2731 H   0  0
  2  1  1  0
  2 10  1  0
  3  2  1  0
  4  5  2  0
  4 34  1  0
  5  6  1  0
  5 31  1  0
  6  7  2  0
  6 35  1  0
  7  8  1  0
  7 36  1  0
  8  9  2  0
  8 11  1  0
  9  2  1  0
  9  4  1  0
 11 12  1  0
 11 37  1  0
 11 38  1  0
 12 13  1  0
 12 39  1  0
 13 14  1  0
 13 15  2  0
 14 16  2  0
 16 17  1  0
 16 40  1  0
 17 20  2  0
 17 41  1  0
 18 14  1  0
 18 42  1  0
 19 18  2  0
 19 20  1  0
 20 21  1  0
 21 22  1  0
 21 24  1  0
 22 23  2  0
 22 43  1  0
 23 19  1  0
 24 25  1  0
 24 44  1  0
 24 45  1  0
 25 26  2  0
 26 27  1  0
 26 46  1  0
 27 28  2  0
 27 47  1  0
 28 29  1  0
 28 48  1  0
 29 30  2  0
 29 33  1  0
 30 25  1  0
 30 49  1  0
 31 32  1  0
 32 50  1  0
 32 51  1  0
 32 52  1  0
M  END
> <Name>
CHEMBL5082042

> <Clean Energy>
48.040501

> <chembl_id>
CHEMBL5082042

> <chembl_pref_name>
None

> <efficacy>
0.113960114

> <Forcefield>
MMFF

> <ForcefieldBase>
MMFF

> <ForcefieldFFML>
<?xml version="1.0" encoding="UTF-8"?>
<!DOCTYPE ffml SYSTEM "Ffml.dtd">
<ffml version="1.0">
<forcefield name="MMFF" derivedFrom="MMFF" base="MMFF">
<atomTypes>
<atomType
name="F100"
element="F"
mass="18.998"
annotation=""/>
<atomType
name="C101"
element="C"
mass="12.011"
annotation=""/>
<atomType
name="N102"
element="N"
mass="14.007"
annotation=""/>
<atomType
name="O103"
element="O"
mass="16"
annotation=""/>
<atomType
name="H104"
element="H"
mass="1.008"
annotation=""/>
</atomTypes>
<parameters>
</parameters>
</forcefield>
</ffml>

> <Initial Potential Energy>
424.64941

> <Initial RMS Gradient>
205.6908

> <Minimization Criteria>
CONJUG> Minimization exiting with gradient tolerance ( 0.0100000) satisfied.

> <CHARMm Energy>
51.52776

> <Potential Energy>
51.52776

> <RMS Gradient>
0.00879

> <Bond Energy>
6.33729

> <Angle Energy>
12.78312

> <STRBend>
0.12871

> <Dihedral Energy>
1.85019

> <OOPLane>
0.05477

> <Van der Waals Energy>
60.64476

> <Electrostatic Energy>
-30.27109

> <Hydrogen Bond Energy>
0

> <Solvation Free Energy>
0

> <HasGasteigerCharges>
true

> <REMARK99>
REMARK  99  MacroMolecule created from Mol2 file
REMARK  99  CHEMBL5082042
REMARK  99  PROTEIN
REMARK  99  GASTEIGER
REMARK  99
REMARK  99

$$$$
CHEMBL5087313
  SciTegic05292516403D

 53 56  0  0  0  0            999 V2000
   21.2404  -23.1072    2.3034 F   0  0
   20.6177  -24.2709    1.9668 C   0  0
   21.2291  -25.2368    2.7110 F   0  0
   19.5768  -24.8958   -0.2376 C   0  0
   19.6298  -25.1560   -1.6049 C   0  0
   20.8519  -25.0776   -2.2679 C   0  0
   22.0199  -24.7679   -1.5722 C   0  0
   21.9978  -24.5406   -0.1843 C   0  0
   20.7471  -24.5713    0.4848 C   0  0
   19.3400  -24.1763    2.4232 F   0  0
   23.2948  -24.1818    0.5250 C   0  0
   24.4260  -25.0151    0.1397 N   0  0
   25.7170  -24.5931    0.4002 C   0  0
   26.8526  -25.4953    0.0318 C   0  0
   25.9621  -23.5030    0.9080 O   0  0
   26.6998  -26.8965   -0.1174 C   0  0
   27.7978  -27.7197   -0.4279 C   0  0
   28.1244  -24.9064   -0.1181 C   0  0
   29.1823  -25.7367   -0.4211 C   0  0
   29.0283  -27.1146   -0.5760 C   0  0
   30.2913  -27.6494   -0.8713 N   0  0
   31.2442  -26.6048   -0.8895 C   0  0
   30.5276  -25.4238   -0.6123 N   0  0
   32.4449  -26.6814   -1.0973 O   0  0
   30.6218  -29.0340   -1.1034 C   0  0
   30.8235  -29.8183    0.1723 C   0  0
   31.8541  -29.4800    1.0633 C   0  0
   32.0253  -30.1896    2.2515 C   0  0
   31.1764  -31.2506    2.5585 C   0  0
   30.1672  -31.6153    1.6707 C   0  0
   29.9953  -30.9075    0.4798 C   0  0
   18.5748  -25.4858   -2.4060 O   0  0
   17.2936  -25.5628   -1.7931 C   0  0
   18.6299  -24.9302    0.2965 H   0  0
   20.8732  -25.2470   -3.3431 H   0  0
   22.9563  -24.6992   -2.1246 H   0  0
   23.5281  -23.1300    0.3225 H   0  0
   23.2066  -24.3012    1.6080 H   0  0
   24.2404  -25.9104   -0.2860 H   0  0
   25.7360  -27.3717    0.0419 H   0  0
   27.6804  -28.7929   -0.5231 H   0  0
   28.2712  -23.8389    0.0117 H   0  0
   30.9836  -24.5248   -0.5628 H   0  0
   29.8350  -29.4803   -1.7231 H   0  0
   31.5490  -29.0869   -1.6874 H   0  0
   32.5289  -28.6559    0.8373 H   0  0
   32.8265  -29.9182    2.9350 H   0  0
   31.3082  -31.7981    3.4875 H   0  0
   29.5072  -32.4457    1.9087 H   0  0
   29.2149  -31.2207   -0.2085 H   0  0
   16.5685  -25.8304   -2.5675 H   0  0
   16.9961  -24.5943   -1.3779 H   0  0
   17.2682  -26.3461   -1.0284 H   0  0
  2  1  1  0
  2 10  1  0
  3  2  1  0
  4  5  2  0
  4 34  1  0
  5  6  1  0
  5 32  1  0
  6  7  2  0
  6 35  1  0
  7  8  1  0
  7 36  1  0
  8  9  2  0
  8 11  1  0
  9  2  1  0
  9  4  1  0
 11 12  1  0
 11 37  1  0
 11 38  1  0
 12 13  1  0
 12 39  1  0
 13 14  1  0
 13 15  2  0
 14 16  2  0
 16 17  1  0
 16 40  1  0
 17 20  2  0
 17 41  1  0
 18 14  1  0
 18 42  1  0
 19 18  2  0
 19 20  1  0
 20 21  1  0
 21 22  1  0
 21 25  1  0
 22 23  1  0
 22 24  2  0
 23 19  1  0
 23 43  1  0
 25 26  1  0
 25 44  1  0
 25 45  1  0
 26 27  2  0
 27 28  1  0
 27 46  1  0
 28 29  2  0
 28 47  1  0
 29 30  1  0
 29 48  1  0
 30 31  2  0
 30 49  1  0
 31 26  1  0
 31 50  1  0
 32 33  1  0
 33 51  1  0
 33 52  1  0
 33 53  1  0
M  END
> <Name>
CHEMBL5087313

> <Clean Energy>
47.721199

> <chembl_id>
CHEMBL5087313

> <chembl_pref_name>
None

> <efficacy>
0.104463438

> <Forcefield>
MMFF

> <ForcefieldBase>
MMFF

> <ForcefieldFFML>
<?xml version="1.0" encoding="UTF-8"?>
<!DOCTYPE ffml SYSTEM "Ffml.dtd">
<ffml version="1.0">
<forcefield name="MMFF" derivedFrom="MMFF" base="MMFF">
<atomTypes>
<atomType
name="F100"
element="F"
mass="18.998"
annotation=""/>
<atomType
name="C101"
element="C"
mass="12.011"
annotation=""/>
<atomType
name="N102"
element="N"
mass="14.007"
annotation=""/>
<atomType
name="O103"
element="O"
mass="16"
annotation=""/>
<atomType
name="H104"
element="H"
mass="1.008"
annotation=""/>
</atomTypes>
<parameters>
</parameters>
</forcefield>
</ffml>

> <Initial Potential Energy>
373.96428

> <Initial RMS Gradient>
193.65174

> <Minimization Criteria>
STEEPD> Minimization exiting with gradient tolerance ( 3.0000000) satisfied.

> <CHARMm Energy>
9.11572

> <Potential Energy>
9.11572

> <RMS Gradient>
0.06707

> <Bond Energy>
8.43346

> <Angle Energy>
34.26741

> <STRBend>
-2.09349

> <Dihedral Energy>
0.02259

> <OOPLane>
0.05928

> <Van der Waals Energy>
58.96773

> <Electrostatic Energy>
-90.54124

> <Hydrogen Bond Energy>
0

> <Solvation Free Energy>
0

> <HasGasteigerCharges>
true

> <REMARK99>
REMARK  99  MacroMolecule created from Mol2 file
REMARK  99  CHEMBL5087313
REMARK  99  PROTEIN
REMARK  99  GASTEIGER
REMARK  99
REMARK  99

$$$$
CHEMBL4784654
  SciTegic05292516403D

 57 60  0  0  0  0            999 V2000
    7.7873   -5.0949   -0.4738 C   0  0
    9.1843   -4.7337   -0.0224 C   0  0
   10.1682   -4.4286   -0.9698 C   0  0
   11.4537   -4.0757   -0.5590 C   0  0
   11.7900   -4.0361    0.7980 C   0  0
   10.7976   -4.3165    1.7452 C   0  0
    9.5049   -4.6656    1.3407 C   0  0
   13.1206   -3.7357    1.1650 N   0  0
   13.6344   -4.6811    1.8098 N   0  0
    6.8269   -3.8961   -0.4292 C   0  0  2  0  0  0
    5.4464   -4.3817   -0.6070 N   0  0
    7.1939   -2.8975   -1.5441 C   0  0
    8.0432   -1.9156   -1.1501 O   0  0
    6.7845   -2.9613   -2.6959 O   0  0
    4.3029   -3.6700   -0.2501 C   0  0
    4.3509   -2.4585    0.4543 C   0  0
    3.1844   -1.7716    0.8219 C   0  0
    1.9304   -2.2854    0.5066 C   0  0
    1.8417   -3.5007   -0.1609 C   0  0
    3.0147   -4.1893   -0.5106 C   0  0
    2.8268   -5.4911   -1.1797 C   0  0
    2.8742   -6.7620   -0.4022 C   0  0
    2.5727   -5.5005   -2.3808 O   0  0
    2.5083   -7.9491   -1.0533 C   0  0
    2.5063   -9.1622   -0.3623 C   0  0
    2.8648   -9.1982    0.9835 C   0  0
    3.2330   -8.0233    1.6378 C   0  0
    3.2367   -6.8064    0.9495 C   0  0
   14.3133   -5.5823    0.9606 C   0  0
   13.9869   -6.9429    1.0328 C   0  0
   14.5919   -7.8673    0.1784 C   0  0
   15.5272   -7.4299   -0.7564 C   0  0
   15.8691   -6.0813   -0.8363 C   0  0
   15.2727   -5.1622    0.0299 C   0  0
   16.2688   -8.5644   -1.8155 Cl  0  0
    7.8243   -5.5225   -1.4850 H   0  0
    7.4133   -5.9016    0.1713 H   0  0
    9.9478   -4.4658   -2.0362 H   0  0
   12.2129   -3.8558   -1.3060 H   0  0
   11.0515   -4.2836    2.8032 H   0  0
    8.7597   -4.9016    2.0983 H   0  0
    6.9145   -3.4045    0.5459 H   0  0
    5.3152   -4.9742   -1.4309 H   0  0
    8.4096   -2.0229   -0.2505 H   0  0
    5.2951   -1.9925    0.7162 H   0  0
    3.2666   -0.8225    1.3467 H   0  0
    1.0277   -1.7425    0.7768 H   0  0
    0.8660   -3.9120   -0.4132 H   0  0
    2.1990   -7.9327   -2.0981 H   0  0
    2.2049  -10.0750   -0.8721 H   0  0
    2.8462  -10.1420    1.5232 H   0  0
    3.5175   -8.0519    2.6870 H   0  0
    3.5274   -5.9085    1.4876 H   0  0
   13.2402   -7.2781    1.7486 H   0  0
   14.3259   -8.9192    0.2415 H   0  0
   16.5844   -5.7332   -1.5741 H   0  0
   15.5422   -4.1105   -0.0324 H   0  0
  1  2  1  0
  1 10  1  0
  1 36  1  0
  1 37  1  0
  2  3  2  0
  3  4  1  0
  3 38  1  0
  4  5  2  0
  4 39  1  0
  5  6  1  0
  5  8  1  0
  6  7  2  0
  6 40  1  0
  7  2  1  0
  7 41  1  0
  8  9  2  0
  9 29  1  0
 10 11  1  0
 10 12  1  0
 10 42  1  0
 11 15  1  0
 11 43  1  0
 12 13  1  0
 12 14  2  0
 13 44  1  0
 15 16  2  0
 16 17  1  0
 16 45  1  0
 17 18  2  0
 17 46  1  0
 18 19  1  0
 18 47  1  0
 19 20  2  0
 19 48  1  0
 20 15  1  0
 20 21  1  0
 21 22  1  0
 21 23  2  0
 22 24  2  0
 24 25  1  0
 24 49  1  0
 25 26  2  0
 25 50  1  0
 26 27  1  0
 26 51  1  0
 27 28  2  0
 27 52  1  0
 28 22  1  0
 28 53  1  0
 29 30  2  0
 30 31  1  0
 30 54  1  0
 31 32  2  0
 31 55  1  0
 32 33  1  0
 32 35  1  0
 33 34  2  0
 33 56  1  0
 34 29  1  0
 34 57  1  0
M  END
> <Name>
CHEMBL4784654

> <Clean Energy>
44.9636

> <chembl_id>
CHEMBL4784654

> <chembl_pref_name>
None

> <efficacy>
0.332383666

> <Forcefield>
MMFF

> <ForcefieldBase>
MMFF

> <ForcefieldFFML>
<?xml version="1.0" encoding="UTF-8"?>
<!DOCTYPE ffml SYSTEM "Ffml.dtd">
<ffml version="1.0">
<forcefield name="MMFF" derivedFrom="MMFF" base="MMFF">
<atomTypes>
<atomType
name="C100"
element="C"
mass="12.011"
annotation=""/>
<atomType
name="N101"
element="N"
mass="14.007"
annotation=""/>
<atomType
name="O102"
element="O"
mass="16"
annotation=""/>
<atomType
name="Cl103"
element="Cl"
mass="35.453"
annotation=""/>
<atomType
name="H104"
element="H"
mass="1.008"
annotation=""/>
</atomTypes>
<parameters>
</parameters>
</forcefield>
</ffml>

> <Initial Potential Energy>
355.9679

> <Initial RMS Gradient>
50.57169

> <Minimization Criteria>
STEEPD> Minimization exiting with gradient tolerance ( 3.0000000) satisfied.

> <CHARMm Energy>
177.89693

> <Potential Energy>
177.89693

> <RMS Gradient>
0.02698

> <Bond Energy>
8.07437

> <Angle Energy>
11.49606

> <STRBend>
1.10239

> <Dihedral Energy>
31.5353

> <OOPLane>
1.64916

> <Van der Waals Energy>
72.47254

> <Electrostatic Energy>
51.5671

> <Hydrogen Bond Energy>
0

> <Solvation Free Energy>
0

> <HasGasteigerCharges>
true

> <REMARK99>
REMARK  99  MacroMolecule created from Mol2 file
REMARK  99  CHEMBL4784654
REMARK  99  PROTEIN
REMARK  99  GASTEIGER
REMARK  99
REMARK  99

$$$$
CHEMBL3752643
  SciTegic05292516403D

 48 49  0  0  0  0            999 V2000
    5.9313   -5.5355   -0.6595 C   0  0
    4.8417   -5.5919    0.4313 C   0  0
    5.4122   -4.9267    1.6948 C   0  0
    3.5408   -4.9149   -0.0558 C   0  0
    3.6388   -3.4118   -0.3183 C   0  0
    2.3223   -2.8707   -0.8707 C   0  0
    2.4246   -1.4454   -0.9345 O   0  0
    1.2178   -0.8075   -0.8978 C   0  0
    1.1590    0.3386   -0.1086 C   0  0
   -0.0435    1.0310    0.0264 C   0  0
   -1.1873    0.5889   -0.6438 C   0  0
   -1.1055   -0.5302   -1.4813 C   0  0
    0.0960   -1.2278   -1.6100 C   0  0
   -2.4539    1.2940   -0.4506 C   0  0
   -3.5337    0.6463    0.0142 C   0  0
   -4.8240    1.3041    0.2413 C   0  0
   -6.0018    0.6290   -0.1033 C   0  0
   -7.2473    1.2215    0.1176 C   0  0
   -7.3185    2.4869    0.6952 C   0  0
   -6.1567    3.1627    1.0589 C   0  0
   -4.9123    2.5698    0.8370 C   0  0
   -8.8510    3.2169    0.9664 Cl  0  0
    4.5009   -7.0688    0.6724 C   0  0
    4.6468   -7.9446   -0.1690 O   0  0
    3.9590   -7.3546    1.8764 O   0  0
    6.8008   -6.1409   -0.3765 H   0  0
    6.2856   -4.5139   -0.8319 H   0  0
    5.5614   -5.9241   -1.6154 H   0  0
    4.6350   -4.7349    2.4424 H   0  0
    5.8793   -3.9621    1.4665 H   0  0
    6.1742   -5.5599    2.1636 H   0  0
    3.1976   -5.4150   -0.9721 H   0  0
    2.7486   -5.0860    0.6863 H   0  0
    3.8865   -2.8764    0.6058 H   0  0
    4.4394   -3.1821   -1.0298 H   0  0
    2.1475   -3.2701   -1.8765 H   0  0
    1.5010   -3.1754   -0.2084 H   0  0
    2.0416    0.6770    0.4264 H   0  0
   -0.0804    1.8955    0.6813 H   0  0
   -1.9783   -0.8691   -2.0346 H   0  0
    0.1353   -2.0879   -2.2697 H   0  0
   -2.4690    2.3567   -0.6847 H   0  0
   -3.4907   -0.4193    0.2364 H   0  0
   -5.9599   -0.3584   -0.5575 H   0  0
   -8.1536    0.6921   -0.1631 H   0  0
   -6.2103    4.1463    1.5173 H   0  0
   -4.0148    3.1029    1.1420 H   0  0
    3.7739   -6.5857    2.4444 H   0  0
  1 26  1  0
  1 27  1  0
  1 28  1  0
  2  1  1  0
  2  4  1  0
  2 23  1  0
  3  2  1  0
  3 29  1  0
  3 30  1  0
  3 31  1  0
  4  5  1  0
  4 32  1  0
  4 33  1  0
  5  6  1  0
  5 34  1  0
  5 35  1  0
  6  7  1  0
  6 36  1  0
  6 37  1  0
  7  8  1  0
  8  9  1  0
  8 13  2  0
  9 10  2  0
  9 38  1  0
 10 11  1  0
 10 39  1  0
 11 12  2  0
 11 14  1  0
 12 13  1  0
 12 40  1  0
 13 41  1  0
 14 15  2  0
 14 42  1  0
 15 16  1  0
 15 43  1  0
 16 17  1  0
 16 21  2  0
 17 18  2  0
 17 44  1  0
 18 19  1  0
 18 45  1  0
 19 20  2  0
 19 22  1  0
 20 21  1  0
 20 46  1  0
 21 47  1  0
 23 24  2  0
 23 25  1  0
 25 48  1  0
M  END
> <Name>
CHEMBL3752643

> <Clean Energy>
10.4408

> <chembl_id>
CHEMBL3752643

> <chembl_pref_name>
None

> <efficacy>
0.25

> <Forcefield>
MMFF

> <ForcefieldBase>
MMFF

> <ForcefieldFFML>
<?xml version="1.0" encoding="UTF-8"?>
<!DOCTYPE ffml SYSTEM "Ffml.dtd">
<ffml version="1.0">
<forcefield name="MMFF" derivedFrom="MMFF" base="MMFF">
<atomTypes>
<atomType
name="C100"
element="C"
mass="12.011"
annotation=""/>
<atomType
name="O101"
element="O"
mass="16"
annotation=""/>
<atomType
name="Cl102"
element="Cl"
mass="35.453"
annotation=""/>
<atomType
name="H103"
element="H"
mass="1.008"
annotation=""/>
</atomTypes>
<parameters>
</parameters>
</forcefield>
</ffml>

> <Initial Potential Energy>
88.89553

> <Initial RMS Gradient>
26.46048

> <Minimization Criteria>
CONJUG> Minimization exiting with gradient tolerance ( 0.0100000) satisfied.

> <CHARMm Energy>
36.05969

> <Potential Energy>
36.05969

> <RMS Gradient>
0.00928

> <Bond Energy>
4.50204

> <Angle Energy>
7.92388

> <STRBend>
0.40763

> <Dihedral Energy>
8.73837

> <OOPLane>
0.07865

> <Van der Waals Energy>
51.07993

> <Electrostatic Energy>
-36.67082

> <Hydrogen Bond Energy>
0

> <Solvation Free Energy>
0

> <HasGasteigerCharges>
true

> <REMARK99>
REMARK  99  MacroMolecule created from Mol2 file
REMARK  99  CHEMBL3752643
REMARK  99  PROTEIN
REMARK  99  GASTEIGER
REMARK  99
REMARK  99

$$$$
CHEMBL490029
  SciTegic05292516403D

 62 65  0  0  0  0            999 V2000
    7.2063   -9.4381    0.4890 C   0  0
    7.0309  -10.8140    0.4745 C   0  0
    8.1297  -11.6567    0.3187 C   0  0
    8.4899   -8.8725    0.4213 C   0  0
    9.6049   -9.7176    0.1989 C   0  0
    9.4276  -11.1121    0.1593 C   0  0
   10.7042  -11.7156   -0.0417 C   0  0
   11.5969  -10.6777   -0.2877 C   0  0
   10.9811   -9.4725    0.0591 N   0  0
   12.9502  -10.7495   -0.9326 C   0  0
   11.6804   -8.2223    0.1754 C   0  0
   10.9826  -13.1515   -0.1077 C   0  0
   10.1473  -13.9949   -0.4246 O   0  0
   12.3421  -13.6080    0.2505 C   0  0
   13.1116  -14.2443   -0.7253 C   0  0
   14.4293  -14.6035   -0.4416 C   0  0
   14.9708  -14.3449    0.8198 C   0  0
   14.1822  -13.7326    1.8001 C   0  0
   12.8669  -13.3611    1.5224 C   0  0
   16.2490  -14.6189    1.2157 O   0  0
   17.0665  -15.3382    0.3003 C   0  0
    6.1312   -8.5973    0.6473 O   0  0
    5.2584   -8.6171   -0.4946 C   0  0
    5.9876   -8.3784   -1.6111 F   0  0
    4.3392   -7.6330   -0.3675 F   0  0
    4.6074   -9.7925   -0.6099 F   0  0
   12.9910   -8.1991    0.7004 C   0  0
   13.7384   -7.0186    0.6977 C   0  0
   13.1633   -5.8301    0.2626 C   0  0
   11.8553   -5.8409   -0.2271 C   0  0
   11.1173   -7.0302   -0.2851 C   0  0
   15.0359   -7.0386    1.1528 O   0  0
   15.9711   -7.0860    0.0456 C   0  0  1  0  0  0
   16.9063   -5.8993    0.2019 C   0  0
   16.7392   -8.4069    0.1377 C   0  0
   17.6064   -8.6792   -1.0814 C   0  0
   17.5319   -5.3801   -0.7142 O   0  0
   17.0662   -5.4833    1.4883 O   0  0
    6.0446  -11.2602    0.5902 H   0  0
    7.9706  -12.7360    0.2952 H   0  0
    8.5969   -7.7986    0.5241 H   0  0
   13.2006   -9.8307   -1.4719 H   0  0
   12.9696  -11.5414   -1.6879 H   0  0
   13.7319  -10.9547   -0.1963 H   0  0
   12.6975  -14.4116   -1.7158 H   0  0
   15.0107  -15.0710   -1.2289 H   0  0
   14.6105  -13.5487    2.7844 H   0  0
   12.2667  -12.8775    2.2885 H   0  0
   18.0298  -15.5221    0.7857 H   0  0
   17.2560  -14.7493   -0.6031 H   0  0
   16.6262  -16.3103    0.0543 H   0  0
   13.4438   -9.0944    1.1171 H   0  0
   13.7164   -4.8949    0.2894 H   0  0
   11.4121   -4.9167   -0.5913 H   0  0
   10.1377   -6.9961   -0.7533 H   0  0
   15.4620   -6.9908   -0.9232 H   0  0
   17.3644   -8.4186    1.0393 H   0  0
   16.0274   -9.2330    0.2561 H   0  0
   18.0821   -9.6611   -0.9922 H   0  0
   18.3998   -7.9331   -1.1841 H   0  0
   17.0072   -8.6760   -1.9974 H   0  0
   16.4252   -5.9825    2.0465 H   0  0
  1  2  2  0
  1 22  1  0
  2  3  1  0
  2 39  1  0
  3  6  2  0
  3 40  1  0
  4  1  1  0
  4 41  1  0
  5  4  2  0
  5  6  1  0
  6  7  1  0
  7  8  2  0
  7 12  1  0
  8  9  1  0
  8 10  1  0
  9  5  1  0
  9 11  1  0
 10 42  1  0
 10 43  1  0
 10 44  1  0
 11 27  2  0
 12 13  2  0
 12 14  1  0
 14 15  2  0
 15 16  1  0
 15 45  1  0
 16 17  2  0
 16 46  1  0
 17 18  1  0
 17 20  1  0
 18 19  2  0
 18 47  1  0
 19 14  1  0
 19 48  1  0
 20 21  1  0
 21 49  1  0
 21 50  1  0
 21 51  1  0
 22 23  1  0
 23 24  1  0
 23 25  1  0
 23 26  1  0
 27 28  1  0
 27 52  1  0
 28 29  2  0
 28 32  1  0
 29 30  1  0
 29 53  1  0
 30 31  2  0
 30 54  1  0
 31 11  1  0
 31 55  1  0
 32 33  1  0
 33 34  1  0
 33 35  1  0
 33 56  1  0
 34 37  2  0
 34 38  1  0
 35 36  1  0
 35 57  1  0
 35 58  1  0
 36 59  1  0
 36 60  1  0
 36 61  1  0
 38 62  1  0
M  END
> <Name>
CHEMBL490029

> <Clean Energy>
70.709503

> <chembl_id>
CHEMBL490029

> <chembl_pref_name>
MK-0533

> <efficacy>
0.25

> <Forcefield>
MMFF

> <ForcefieldBase>
MMFF

> <ForcefieldFFML>
<?xml version="1.0" encoding="UTF-8"?>
<!DOCTYPE ffml SYSTEM "Ffml.dtd">
<ffml version="1.0">
<forcefield name="MMFF" derivedFrom="MMFF" base="MMFF">
<atomTypes>
<atomType
name="C100"
element="C"
mass="12.011"
annotation=""/>
<atomType
name="N101"
element="N"
mass="14.007"
annotation=""/>
<atomType
name="O102"
element="O"
mass="16"
annotation=""/>
<atomType
name="F103"
element="F"
mass="18.998"
annotation=""/>
<atomType
name="H104"
element="H"
mass="1.008"
annotation=""/>
</atomTypes>
<parameters>
</parameters>
</forcefield>
</ffml>

> <Initial Potential Energy>
336.54468

> <Initial RMS Gradient>
40.80858

> <Minimization Criteria>
CONJUG> Minimization exiting with gradient tolerance ( 0.0100000) satisfied.

> <CHARMm Energy>
121.29755

> <Potential Energy>
121.29755

> <RMS Gradient>
0.00967

> <Bond Energy>
9.21604

> <Angle Energy>
20.53465

> <STRBend>
0.55955

> <Dihedral Energy>
35.33394

> <OOPLane>
0.34462

> <Van der Waals Energy>
70.63881

> <Electrostatic Energy>
-15.33008

> <Hydrogen Bond Energy>
0

> <Solvation Free Energy>
0

> <HasGasteigerCharges>
true

> <REMARK99>
REMARK  99  MacroMolecule created from Mol2 file
REMARK  99  CHEMBL490029
REMARK  99  PROTEIN
REMARK  99  GASTEIGER
REMARK  99
REMARK  99

$$$$
CHEMBL196261
  SciTegic05292516403D

 52 52  0  0  0  0            999 V2000
    1.6094    0.6183   -0.1217 C   0  0
   11.0261    0.7301   -2.3259 C   0  0
    2.0049   -0.6918    0.2178 C   0  0
   11.9339   -0.1215   -2.0677 O   0  5
   11.1369    1.8013   -2.9847 O   0  0
    2.4007    1.8209    0.3629 C   0  0  2  0  0  0
    3.0855   -0.8016    1.0558 O   0  0
    1.4984    2.9430    0.5283 O   0  0
    0.4952    0.7897   -0.9647 C   0  0
    9.6404    0.3831   -1.7507 C   0  0
    1.2913   -1.7891   -0.2816 C   0  0
    3.5660    2.2334   -0.5826 C   0  0
    3.7462   -2.0669    1.1118 C   0  0
    8.4831    1.3795   -1.9019 C   0  0
    4.7784    1.2832   -0.5564 C   0  0
    5.0486   -1.8823    1.8866 C   0  0
    7.1301   -2.9946    2.7760 C   0  0
    5.8225   -3.1929    2.0102 C   0  0
    7.2045    0.8625   -1.2109 C   0  0
    6.0080    1.8283   -1.3124 C   0  0
   -0.2077   -0.3100   -1.4553 C   0  0
    7.9048   -4.2967    2.9015 C   0  0
    0.1885   -1.5988   -1.1137 C   0  0
    2.7934    1.6285    1.3681 H   0  0
    2.0966    3.6890    0.7123 H   0  0
    0.1794    1.7926   -1.2469 H   0  0
    9.3428   -0.5697   -2.2078 H   0  0
    9.7900    0.1848   -0.6810 H   0  0
    1.6021   -2.8021   -0.0538 H   0  0
    3.1952    2.3318   -1.6109 H   0  0
    3.9094    3.2358   -0.2957 H   0  0
    3.1115   -2.7918    1.6346 H   0  0
    3.9730   -2.4256    0.1002 H   0  0
    8.7718    2.3443   -1.4687 H   0  0
    8.2841    1.5530   -2.9659 H   0  0
    5.0641    1.1046    0.4868 H   0  0
    4.4986    0.3186   -0.9936 H   0  0
    5.6654   -1.1268    1.3852 H   0  0
    4.8254   -1.4765    2.8813 H   0  0
    7.7536   -2.2534    2.2624 H   0  0
    6.9194   -2.6032    3.7780 H   0  0
    6.0390   -3.5876    1.0100 H   0  0
    5.2037   -3.9380    2.5248 H   0  0
    6.9230   -0.1025   -1.6506 H   0  0
    7.4234    0.6774   -0.1517 H   0  0
    6.2911    2.8016   -0.8946 H   0  0
    5.7508    1.9868   -2.3661 H   0  0
   -1.0638   -0.1565   -2.1064 H   0  0
    8.8366   -4.1317    3.4512 H   0  0
    8.1585   -4.6988    1.9155 H   0  0
    7.3212   -5.0500    3.4403 H   0  0
   -0.3613   -2.4549   -1.4967 H   0  0
  2 10  1  0
  3  1  1  0
  4  2  1  0
  5  2  2  0
  6  1  1  0
  6 24  1  0
  7  3  1  0
  8  6  1  0
  8 25  1  0
  9  1  2  0
  9 26  1  0
 10 14  1  0
 10 27  1  0
 10 28  1  0
 11  3  2  0
 11 23  1  0
 11 29  1  0
 12  6  1  0
 12 30  1  0
 12 31  1  0
 13  7  1  0
 13 32  1  0
 13 33  1  0
 14 19  1  0
 14 34  1  0
 14 35  1  0
 15 12  1  0
 15 36  1  0
 15 37  1  0
 16 13  1  0
 16 38  1  0
 16 39  1  0
 17 18  1  0
 17 40  1  0
 17 41  1  0
 18 16  1  0
 18 42  1  0
 18 43  1  0
 19 20  1  0
 19 44  1  0
 19 45  1  0
 20 15  1  0
 20 46  1  0
 20 47  1  0
 21  9  1  0
 21 48  1  0
 22 17  1  0
 22 49  1  0
 22 50  1  0
 22 51  1  0
 23 21  2  0
 23 52  1  0
M  CHG  1   4  -1
M  END
> <Name>
CHEMBL196261

> <Clean Energy>
25.0207

> <chembl_id>
CHEMBL196261

> <chembl_pref_name>
None

> <efficacy>
0.29

> <Forcefield>
MMFF

> <ForcefieldBase>
MMFF

> <ForcefieldFFML>
<?xml version="1.0" encoding="UTF-8"?>
<!DOCTYPE ffml SYSTEM "Ffml.dtd">
<ffml version="1.0">
<forcefield name="MMFF" derivedFrom="MMFF" base="MMFF">
<atomTypes>
<atomType
name="C100"
element="C"
mass="12.011"
annotation=""/>
<atomType
name="O101"
element="O"
mass="16"
annotation=""/>
<atomType
name="H102"
element="H"
mass="1.008"
annotation=""/>
</atomTypes>
<parameters>
</parameters>
</forcefield>
</ffml>

> <Initial Potential Energy>
116.43468

> <Initial RMS Gradient>
28.15517

> <Minimization Criteria>
STEEPD> Minimization exiting with gradient tolerance ( 3.0000000) satisfied.

> <CHARMm Energy>
20.90112

> <Potential Energy>
20.90112

> <RMS Gradient>
0.01588

> <Bond Energy>
5.33113

> <Angle Energy>
12.84915

> <STRBend>
0.38041

> <Dihedral Energy>
-13.81668

> <OOPLane>
0.0172

> <Van der Waals Energy>
33.74649

> <Electrostatic Energy>
-17.60657

> <Hydrogen Bond Energy>
0

> <Solvation Free Energy>
0

> <HasGasteigerCharges>
true

> <REMARK99>
REMARK  99  MacroMolecule created from Mol2 file
REMARK  99  CHEMBL196261
REMARK  99  PROTEIN
REMARK  99  GASTEIGER
REMARK  99
REMARK  99

$$$$
CHEMBL4101596
  SciTegic05292516403D

 44 47  0  0  0  0            999 V2000
   14.6066   -5.0955    2.4425 O   0  0
   14.5415   -5.1105    0.9941 S   0  0
   15.7020   -5.3653    0.1633 O   0  0
   10.2216   -1.8237    1.0574 C   0  0
   10.4203   -3.0125    1.7489 C   0  0
   11.6455   -3.6834    1.6851 C   0  0
   11.2518   -1.2502    0.3089 C   0  0
   12.5000   -1.9033    0.2412 C   0  0
   12.6714   -3.1249    0.9006 C   0  0
   13.9458   -3.5591    0.5736 N   0  0
   14.6670   -2.5524   -0.0544 C   0  0
   13.7440   -1.5659   -0.3601 C   0  0
   13.3020   -6.2762    0.4854 C   0  0
   16.1447   -2.6078   -0.3188 C   0  0
   16.8014   -1.2277   -0.4458 C   0  0
   18.3105   -1.3590   -0.6307 C   0  0
    8.6867   -1.0438    1.1356 Cl  0  0
   18.9965   -0.0203   -0.5532 C   0  0
   19.5674    0.4010    0.4420 O   0  0
   18.9381    0.6931   -1.7002 O   0  0
   12.7633   -6.2011   -0.8044 C   0  0
   12.8925   -7.2753    1.3956 C   0  0
   11.9141   -8.2004    1.0257 C   0  0
   11.3848   -8.1002   -0.2437 C   0  0
   11.8000   -7.1316   -1.1316 C   0  0
   11.1542   -7.2201   -2.3259 O   0  0
   10.2834   -8.3507   -2.0883 C   0  0
   10.4285   -8.9116   -0.7677 O   0  0
    9.6194   -3.4324    2.3518 H   0  0
   11.7788   -4.6036    2.2466 H   0  0
   11.1001   -0.3046   -0.2036 H   0  0
   13.9519   -0.6505   -0.9012 H   0  0
   16.6415   -3.1254    0.5098 H   0  0
   16.3220   -3.1809   -1.2366 H   0  0
   16.3775   -0.6781   -1.2953 H   0  0
   16.5887   -0.6288    0.4494 H   0  0
   18.7428   -1.9921    0.1536 H   0  0
   18.5579   -1.8392   -1.5842 H   0  0
   18.4472    0.2436   -2.4143 H   0  0
   13.0803   -5.4589   -1.5283 H   0  0
   13.3374   -7.3270    2.3884 H   0  0
   11.5795   -8.9755    1.7082 H   0  0
    9.2449   -8.0263   -2.2213 H   0  0
   10.5092   -9.1275   -2.8278 H   0  0
  2  1  2  0
  2 13  1  0
  3  2  2  0
  4  5  2  0
  4 17  1  0
  5  6  1  0
  5 29  1  0
  6  9  2  0
  6 30  1  0
  7  4  1  0
  7 31  1  0
  8  7  2  0
  8  9  1  0
  9 10  1  0
 10  2  1  0
 10 11  1  0
 11 12  2  0
 11 14  1  0
 12  8  1  0
 12 32  1  0
 13 21  2  0
 14 15  1  0
 14 33  1  0
 14 34  1  0
 15 16  1  0
 15 35  1  0
 15 36  1  0
 16 18  1  0
 16 37  1  0
 16 38  1  0
 18 19  2  0
 18 20  1  0
 20 39  1  0
 21 40  1  0
 22 13  1  0
 22 23  2  0
 22 41  1  0
 23 42  1  0
 24 23  1  0
 24 25  2  0
 25 21  1  0
 25 26  1  0
 26 27  1  0
 27 28  1  0
 27 43  1  0
 27 44  1  0
 28 24  1  0
M  END
> <Name>
CHEMBL4101596

> <Clean Energy>
49.925499

> <chembl_id>
CHEMBL4101596

> <chembl_pref_name>
None

> <efficacy>
0.45

> <Forcefield>
MMFF

> <ForcefieldBase>
MMFF

> <ForcefieldFFML>
<?xml version="1.0" encoding="UTF-8"?>
<!DOCTYPE ffml SYSTEM "Ffml.dtd">
<ffml version="1.0">
<forcefield name="MMFF" derivedFrom="MMFF" base="MMFF">
<atomTypes>
<atomType
name="O100"
element="O"
mass="16"
annotation=""/>
<atomType
name="S101"
element="S"
mass="32.066"
annotation=""/>
<atomType
name="C102"
element="C"
mass="12.011"
annotation=""/>
<atomType
name="N103"
element="N"
mass="14.007"
annotation=""/>
<atomType
name="Cl104"
element="Cl"
mass="35.453"
annotation=""/>
<atomType
name="H105"
element="H"
mass="1.008"
annotation=""/>
</atomTypes>
<parameters>
</parameters>
</forcefield>
</ffml>

> <Initial Potential Energy>
594.11904

> <Initial RMS Gradient>
322.73486

> <Minimization Criteria>
CONJUG> Minimization exiting with gradient tolerance ( 0.0100000) satisfied.

> <CHARMm Energy>
93.21523

> <Potential Energy>
93.21523

> <RMS Gradient>
0.00961

> <Bond Energy>
4.71001

> <Angle Energy>
15.23479

> <STRBend>
0.70063

> <Dihedral Energy>
-3.70537

> <OOPLane>
0.02177

> <Van der Waals Energy>
37.74714

> <Electrostatic Energy>
38.50626

> <Hydrogen Bond Energy>
0

> <Solvation Free Energy>
0

> <HasGasteigerCharges>
true

> <REMARK99>
REMARK  99  MacroMolecule created from Mol2 file
REMARK  99  CHEMBL4101596
REMARK  99  PROTEIN
REMARK  99  GASTEIGER
REMARK  99
REMARK  99

$$$$
CHEMBL4162949
  SciTegic05292516403D

 78 81  0  0  0  0            999 V2000
   -3.2556   -4.7879   -0.1016 C   0  0
   -3.2553   -6.1891   -0.0777 C   0  0
   -2.0650   -6.8887    0.1488 C   0  0
   -0.8706   -6.1926    0.3505 C   0  0
   -0.9047   -4.7919    0.3682 C   0  0
   -2.0783   -4.0838    0.1207 C   0  0
   -1.9140   -2.7268    0.1147 O   0  0
   -4.4823   -6.7510   -0.3034 O   0  0
    0.3839   -6.9279    0.5568 C   0  0
    1.5518   -6.4750    0.0797 C   0  0
    2.8155   -7.2196    0.3045 C   0  0
    4.0587   -6.4513    0.0603 C   0  0
    2.8470   -8.3996    0.6243 O   0  0
    5.0992   -7.0673   -0.6382 C   0  0
    5.3290   -4.3759    0.2295 C   0  0
    4.1802   -5.1198    0.5093 C   0  0
    6.3409   -4.9806   -0.4994 C   0  0
    6.2254   -6.3122   -0.9167 C   0  0
    7.6662   -6.8274   -1.8086 S   0  0
    8.4185   -5.2389   -1.5978 C   0  0
    7.5543   -4.3980   -0.8991 N   0  0
    9.5453   -4.9790   -1.9953 O   0  0
    8.0017   -3.0591   -0.5649 C   0  0
    9.0113   -3.0399    0.5901 C   0  0
    9.6273   -1.7439    0.6347 O   0  0
   10.9943   -1.7548    0.6423 C   0  0
   11.7584   -2.5371    1.5075 C   0  0
   13.1544   -2.4460    1.4834 C   0  0
   13.7973   -1.5594    0.6079 C   0  0
   13.0181   -0.7729   -0.2502 C   0  0
   11.6245   -0.8614   -0.2220 C   0  0
   15.3095   -1.4416    0.5953 C   0  0
   15.9890   -2.5061   -0.2826 C   0  0  1  0  0  0
   17.4170   -2.0268   -0.6099 C   0  0
   18.3622   -2.9463   -0.2579 O   0  0
   17.6820   -0.9475   -1.1313 O   0  0
   15.9455   -3.7495    0.4281 O   0  0
   15.8477   -4.8747   -0.4422 C   0  0
   15.8938   -6.1331    0.4011 C   0  0
   19.7160   -2.5536   -0.5242 C   0  0
   20.6287   -3.6785   -0.0773 C   0  0
   -3.0646   -1.9530   -0.1994 C   0  0
   -4.5866   -8.1658   -0.1976 C   0  0
   -4.1953   -4.2805   -0.2928 H   0  0
   -2.0606   -7.9748    0.1588 H   0  0
   -0.0023   -4.2190    0.5648 H   0  0
    0.3371   -7.8659    1.1038 H   0  0
    1.6186   -5.5576   -0.4944 H   0  0
    5.0184   -8.0989   -0.9687 H   0  0
    5.3977   -3.3525    0.5819 H   0  0
    3.3834   -4.6548    1.0870 H   0  0
    8.4861   -2.6393   -1.4567 H   0  0
    7.1566   -2.3963   -0.3543 H   0  0
    8.4987   -3.2131    1.5429 H   0  0
    9.7452   -3.8439    0.4563 H   0  0
   11.2844   -3.2084    2.2169 H   0  0
   13.7477   -3.0583    2.1615 H   0  0
   13.4891   -0.0719   -0.9361 H   0  0
   11.0347   -0.2291   -0.8794 H   0  0
   15.5711   -0.4300    0.2593 H   0  0
   15.6731   -1.5157    1.6291 H   0  0
   15.4598   -2.6013   -1.2401 H   0  0
   14.9004   -4.8315   -0.9907 H   0  0
   16.6768   -4.8748   -1.1577 H   0  0
   15.8166   -7.0259   -0.2256 H   0  0
   15.0756   -6.1398    1.1288 H   0  0
   16.8277   -6.1805    0.9710 H   0  0
   19.8442   -2.3758   -1.5976 H   0  0
   19.9513   -1.6406    0.0338 H   0  0
   21.6770   -3.4270   -0.2608 H   0  0
   20.3882   -4.6045   -0.6101 H   0  0
   20.4953   -3.8821    0.9903 H   0  0
   -2.7716   -0.8987   -0.1887 H   0  0
   -3.8481   -2.0884    0.5536 H   0  0
   -3.4365   -2.1854   -1.2029 H   0  0
   -5.6348   -8.4368   -0.3562 H   0  0
   -4.2999   -8.5098    0.8017 H   0  0
   -3.9926   -8.6614   -0.9722 H   0  0
  1  2  2  0
  1 44  1  0
  2  3  1  0
  2  8  1  0
  3  4  2  0
  3 45  1  0
  4  5  1  0
  4  9  1  0
  5  6  2  0
  5 46  1  0
  6  1  1  0
  6  7  1  0
  7 42  1  0
  8 43  1  0
  9 10  2  0
  9 47  1  0
 10 11  1  0
 10 48  1  0
 11 12  1  0
 11 13  2  0
 12 14  2  0
 14 18  1  0
 14 49  1  0
 15 16  2  0
 15 50  1  0
 16 12  1  0
 16 51  1  0
 17 15  1  0
 17 18  2  0
 18 19  1  0
 19 20  1  0
 20 21  1  0
 20 22  2  0
 21 17  1  0
 21 23  1  0
 23 24  1  0
 23 52  1  0
 23 53  1  0
 24 25  1  0
 24 54  1  0
 24 55  1  0
 25 26  1  0
 26 27  2  0
 27 28  1  0
 27 56  1  0
 28 29  2  0
 28 57  1  0
 29 30  1  0
 29 32  1  0
 30 31  2  0
 30 58  1  0
 31 26  1  0
 31 59  1  0
 32 33  1  0
 32 60  1  0
 32 61  1  0
 33 34  1  0
 33 37  1  0
 33 62  1  0
 34 35  1  0
 34 36  2  0
 35 40  1  0
 37 38  1  0
 38 39  1  0
 38 63  1  0
 38 64  1  0
 39 65  1  0
 39 66  1  0
 39 67  1  0
 40 41  1  0
 40 68  1  0
 40 69  1  0
 41 70  1  0
 41 71  1  0
 41 72  1  0
 42 73  1  0
 42 74  1  0
 42 75  1  0
 43 76  1  0
 43 77  1  0
 43 78  1  0
M  END
> <Name>
CHEMBL4162949

> <Clean Energy>
34.591599

> <chembl_id>
CHEMBL4162949

> <chembl_pref_name>
None

> <efficacy>
0.4

> <Forcefield>
MMFF

> <ForcefieldBase>
MMFF

> <ForcefieldFFML>
<?xml version="1.0" encoding="UTF-8"?>
<!DOCTYPE ffml SYSTEM "Ffml.dtd">
<ffml version="1.0">
<forcefield name="MMFF" derivedFrom="MMFF" base="MMFF">
<atomTypes>
<atomType
name="C100"
element="C"
mass="12.011"
annotation=""/>
<atomType
name="O101"
element="O"
mass="16"
annotation=""/>
<atomType
name="S102"
element="S"
mass="32.066"
annotation=""/>
<atomType
name="N103"
element="N"
mass="14.007"
annotation=""/>
<atomType
name="H104"
element="H"
mass="1.008"
annotation=""/>
</atomTypes>
<parameters>
</parameters>
</forcefield>
</ffml>

> <Initial Potential Energy>
202.32152

> <Initial RMS Gradient>
25.90886

> <Minimization Criteria>
CONJUG> Minimization exiting with gradient tolerance ( 0.0100000) satisfied.

> <CHARMm Energy>
96.39419

> <Potential Energy>
96.39419

> <RMS Gradient>
0.01

> <Bond Energy>
6.7922

> <Angle Energy>
33.82285

> <STRBend>
0.33319

> <Dihedral Energy>
10.06892

> <OOPLane>
0.12295

> <Van der Waals Energy>
81.82241

> <Electrostatic Energy>
-36.56833

> <Hydrogen Bond Energy>
0

> <Solvation Free Energy>
0

> <HasGasteigerCharges>
true

> <REMARK99>
REMARK  99  MacroMolecule created from Mol2 file
REMARK  99  CHEMBL4162949
REMARK  99  PROTEIN
REMARK  99  GASTEIGER
REMARK  99
REMARK  99

$$$$
CHEMBL4090691
  SciTegic05292516403D

 44 46  0  0  0  0            999 V2000
   35.4434  -20.0522    0.4921 O   0  0
   34.1013  -19.8903    1.0160 S   0  0
   33.8037  -19.9137    2.4332 O   0  0
   29.8164  -16.5505    0.6455 C   0  0
   29.9688  -17.7155    1.4060 C   0  0
   31.1767  -18.4193    1.4396 C   0  0
   30.8916  -16.0792   -0.1187 C   0  0
   32.1234  -16.7501   -0.0714 C   0  0
   32.2536  -17.9076    0.6988 C   0  0
   33.5598  -18.3352    0.5242 N   0  0
   34.3031  -17.3707   -0.1339 C   0  0
   33.3862  -16.4660   -0.6403 C   0  0
   33.0730  -21.0346    0.1329 C   0  0
   32.6761  -20.7087   -1.1764 C   0  0
   31.8449  -21.5667   -1.9001 C   0  0
   31.4157  -22.7610   -1.3320 C   0  0
   31.8366  -23.1030   -0.0460 C   0  0
   32.6743  -22.2502    0.6903 C   0  0
   35.7988  -17.3170   -0.1912 C   0  0
   36.2796  -15.8662   -0.3113 C   0  0
   37.7865  -15.7408   -0.2055 C   0  0
   28.5122  -15.8027    0.6262 C   0  0
   38.1807  -14.2892   -0.2597 C   0  0
   38.5604  -13.6418    0.7040 O   0  0
   38.1218  -13.7557   -1.5039 O   0  0
   28.6583  -14.4642    0.4199 F   0  0
   27.6781  -16.2442   -0.3590 F   0  0
   27.8047  -15.9261    1.7847 F   0  0
   33.1642  -22.8348    2.2374 Cl  0  0
   29.1387  -18.0807    2.0074 H   0  0
   31.2690  -19.3060    2.0623 H   0  0
   30.7904  -15.1709   -0.7102 H   0  0
   33.6150  -15.5986   -1.2478 H   0  0
   33.0096  -19.7935   -1.6610 H   0  0
   31.5446  -21.2928   -2.9088 H   0  0
   30.7650  -23.4375   -1.8862 H   0  0
   31.5080  -24.0529    0.3780 H   0  0
   36.2236  -17.7351    0.7280 H   0  0
   36.1611  -17.9051   -1.0416 H   0  0
   35.9469  -15.4445   -1.2681 H   0  0
   35.8156  -15.2517    0.4725 H   0  0
   38.1467  -16.1553    0.7431 H   0  0
   38.3004  -16.2847   -1.0057 H   0  0
   37.6870  -14.3599   -2.1374 H   0  0
  2  1  2  0
  2 13  1  0
  3  2  2  0
  4  5  2  0
  4 22  1  0
  5  6  1  0
  5 30  1  0
  6  9  2  0
  6 31  1  0
  7  4  1  0
  7 32  1  0
  8  7  2  0
  8  9  1  0
  9 10  1  0
 10  2  1  0
 10 11  1  0
 11 12  2  0
 11 19  1  0
 12  8  1  0
 12 33  1  0
 13 14  2  0
 14 15  1  0
 14 34  1  0
 15 16  2  0
 15 35  1  0
 16 17  1  0
 16 36  1  0
 17 18  2  0
 17 37  1  0
 18 13  1  0
 18 29  1  0
 19 20  1  0
 19 38  1  0
 19 39  1  0
 20 21  1  0
 20 40  1  0
 20 41  1  0
 21 23  1  0
 21 42  1  0
 21 43  1  0
 22 26  1  0
 22 27  1  0
 22 28  1  0
 23 24  2  0
 23 25  1  0
 25 44  1  0
M  END
> <Name>
CHEMBL4090691

> <Clean Energy>
47.6796

> <chembl_id>
CHEMBL4090691

> <chembl_pref_name>
None

> <efficacy>
0.45

> <Forcefield>
MMFF

> <ForcefieldBase>
MMFF

> <ForcefieldFFML>
<?xml version="1.0" encoding="UTF-8"?>
<!DOCTYPE ffml SYSTEM "Ffml.dtd">
<ffml version="1.0">
<forcefield name="MMFF" derivedFrom="MMFF" base="MMFF">
<atomTypes>
<atomType
name="O100"
element="O"
mass="16"
annotation=""/>
<atomType
name="S101"
element="S"
mass="32.066"
annotation=""/>
<atomType
name="C102"
element="C"
mass="12.011"
annotation=""/>
<atomType
name="N103"
element="N"
mass="14.007"
annotation=""/>
<atomType
name="F104"
element="F"
mass="18.998"
annotation=""/>
<atomType
name="Cl105"
element="Cl"
mass="35.453"
annotation=""/>
<atomType
name="H106"
element="H"
mass="1.008"
annotation=""/>
</atomTypes>
<parameters>
</parameters>
</forcefield>
</ffml>

> <Initial Potential Energy>
570.70106

> <Initial RMS Gradient>
289.86494

> <Minimization Criteria>
CONJUG> Minimization exiting with gradient tolerance ( 0.0100000) satisfied.

> <CHARMm Energy>
105.57817

> <Potential Energy>
105.57817

> <RMS Gradient>
0.00922

> <Bond Energy>
4.26246

> <Angle Energy>
12.07804

> <STRBend>
0.72375

> <Dihedral Energy>
-3.18717

> <OOPLane>
0.10517

> <Van der Waals Energy>
41.35797

> <Electrostatic Energy>
50.23795

> <Hydrogen Bond Energy>
0

> <Solvation Free Energy>
0

> <HasGasteigerCharges>
true

> <REMARK99>
REMARK  99  MacroMolecule created from Mol2 file
REMARK  99  CHEMBL4090691
REMARK  99  PROTEIN
REMARK  99  GASTEIGER
REMARK  99
REMARK  99

$$$$
CHEMBL4087052
  SciTegic05292516403D

 46 49  0  0  0  0            999 V2000
   15.2723  -13.8625   -2.6969 O   0  0
   15.1423  -13.9810   -1.2572 S   0  0
   16.2705  -14.2809   -0.3991 O   0  0
   10.8085  -10.7319   -1.4795 C   0  0
   11.0995  -11.8513   -2.2500 C   0  0
   12.3252  -12.5120   -2.1160 C   0  0
   11.7413  -10.2228   -0.5723 C   0  0
   12.9861  -10.8700   -0.4262 C   0  0
   13.2520  -12.0188   -1.1776 C   0  0
   14.4931  -12.4725   -0.7588 N   0  0
   15.1101  -11.5457    0.0702 C   0  0
   14.1446  -10.5927    0.3514 C   0  0
   13.8982  -15.1915   -0.8916 C   0  0
   16.5355  -11.6374    0.5348 C   0  0
   17.1564  -10.2831    0.8987 C   0  0
   18.6468  -10.4366    1.2036 C   0  0
    9.2784   -9.9578   -1.6557 Cl  0  0
   19.3660   -9.1135    1.2882 C   0  0
   19.9006   -8.6758    2.2963 O   0  0
   19.4328   -8.4570    0.1042 O   0  0
   13.2241  -15.1382    0.3341 C   0  0
   13.6106  -16.1759   -1.8410 C   0  0
   12.6133  -17.1239   -1.5964 C   0  0
   11.9196  -17.0489   -0.3764 C   0  0
   12.2083  -16.0779    0.5870 C   0  0
   11.4286  -16.1394    1.7300 N   0  0
   10.5692  -17.1308    1.6431 C   0  0
   10.6423  -18.0512    0.1988 S   0  0
    9.5779  -17.4774    2.6976 C   0  0
   10.3737  -12.2229   -2.9685 H   0  0
   12.5362  -13.3773   -2.7380 H   0  0
   11.5151   -9.3338    0.0095 H   0  0
   14.2697   -9.7433    1.0130 H   0  0
   16.5932  -12.3116    1.3971 H   0  0
   17.1463  -12.0566   -0.2725 H   0  0
   17.0043   -9.5770    0.0732 H   0  0
   16.6514   -9.8496    1.7708 H   0  0
   18.7794  -10.9615    2.1570 H   0  0
   19.1547  -11.0387    0.4407 H   0  0
   18.9676   -8.9353   -0.6100 H   0  0
   13.4517  -14.3961    1.0922 H   0  0
   14.1638  -16.2071   -2.7789 H   0  0
   12.3715  -17.8960   -2.3255 H   0  0
    9.7602  -18.4845    3.0855 H   0  0
    8.5574  -17.4291    2.3045 H   0  0
    9.6500  -16.7758    3.5349 H   0  0
  2  1  2  0
  2 13  1  0
  3  2  2  0
  4  5  2  0
  4 17  1  0
  5  6  1  0
  5 30  1  0
  6  9  2  0
  6 31  1  0
  7  4  1  0
  7 32  1  0
  8  7  2  0
  8  9  1  0
  9 10  1  0
 10  2  1  0
 10 11  1  0
 11 12  2  0
 11 14  1  0
 12  8  1  0
 12 33  1  0
 13 21  2  0
 14 15  1  0
 14 34  1  0
 14 35  1  0
 15 16  1  0
 15 36  1  0
 15 37  1  0
 16 18  1  0
 16 38  1  0
 16 39  1  0
 18 19  2  0
 18 20  1  0
 20 40  1  0
 21 41  1  0
 22 13  1  0
 22 23  2  0
 22 42  1  0
 23 43  1  0
 24 23  1  0
 24 25  2  0
 25 21  1  0
 25 26  1  0
 26 27  2  0
 27 28  1  0
 27 29  1  0
 28 24  1  0
 29 44  1  0
 29 45  1  0
 29 46  1  0
M  END
> <Name>
CHEMBL4087052

> <Clean Energy>
60.256699

> <chembl_id>
CHEMBL4087052

> <chembl_pref_name>
None

> <efficacy>
0.39

> <Forcefield>
MMFF

> <ForcefieldBase>
MMFF

> <ForcefieldFFML>
<?xml version="1.0" encoding="UTF-8"?>
<!DOCTYPE ffml SYSTEM "Ffml.dtd">
<ffml version="1.0">
<forcefield name="MMFF" derivedFrom="MMFF" base="MMFF">
<atomTypes>
<atomType
name="O100"
element="O"
mass="16"
annotation=""/>
<atomType
name="S101"
element="S"
mass="32.066"
annotation=""/>
<atomType
name="C102"
element="C"
mass="12.011"
annotation=""/>
<atomType
name="N103"
element="N"
mass="14.007"
annotation=""/>
<atomType
name="Cl104"
element="Cl"
mass="35.453"
annotation=""/>
<atomType
name="H105"
element="H"
mass="1.008"
annotation=""/>
</atomTypes>
<parameters>
</parameters>
</forcefield>
</ffml>

> <Initial Potential Energy>
570.68425

> <Initial RMS Gradient>
298.64615

> <Minimization Criteria>
STEEPD> Minimization exiting with gradient tolerance ( 3.0000000) satisfied.

> <CHARMm Energy>
88.73871

> <Potential Energy>
88.73871

> <RMS Gradient>
0.05371

> <Bond Energy>
4.97027

> <Angle Energy>
14.29342

> <STRBend>
-0.06709

> <Dihedral Energy>
-5.63419

> <OOPLane>
0.07934

> <Van der Waals Energy>
37.54584

> <Electrostatic Energy>
37.55111

> <Hydrogen Bond Energy>
0

> <Solvation Free Energy>
0

> <HasGasteigerCharges>
true

> <REMARK99>
REMARK  99  MacroMolecule created from Mol2 file
REMARK  99  CHEMBL4087052
REMARK  99  PROTEIN
REMARK  99  GASTEIGER
REMARK  99
REMARK  99

$$$$
CHEMBL4586557
  SciTegic05292516403D

 54 56  0  0  0  0            999 V2000
   10.8158  -10.4137    1.6419 C   0  0
   11.4964   -9.3081    0.8344 C   0  0  2  0  0  0
   13.0301   -9.4213    0.9006 C   0  0
   13.5521  -10.6481    0.1395 C   0  0
   15.0796  -10.7244    0.1913 C   0  0
   15.6019  -11.9416   -0.5737 C   0  0
   17.1276  -12.0174   -0.5235 C   0  0
   17.6506  -13.2247   -1.2854 C   0  0
   11.3344  -11.0095    2.5770 O   0  0
    9.5659  -10.7203    1.2237 O   0  0
   11.0065   -7.6741    1.5005 S   0  0
    8.2834   -6.3339    1.4382 S   0  0
    9.3564   -7.5616    0.9303 C   0  0
    8.8666   -8.4574    0.1005 N   0  0
    7.5383   -8.1688   -0.1571 C   0  0
    7.0270   -7.0577    0.5094 C   0  0
    6.6902   -8.9120   -0.9933 C   0  0
    5.3457   -8.5431   -1.1097 C   0  0
    4.8220   -7.4488   -0.4179 C   0  0
    5.6809   -6.6815    0.3849 C   0  0
    3.4874   -7.1070   -0.4600 N   0  0
    2.4617   -7.9025   -1.0991 C   0  0
    1.1143   -7.3932   -0.6563 C   0  0
    0.4557   -6.3929   -1.3836 C   0  0
   -0.7651   -5.8892   -0.9376 C   0  0
   -1.3339   -6.3766    0.2385 C   0  0
   -0.6858   -7.3670    0.9728 C   0  0
    0.5392   -7.8682    0.5323 C   0  0
   11.2017   -9.3927   -0.2179 H   0  0
   13.4878   -8.5282    0.4544 H   0  0
   13.3717   -9.4717    1.9427 H   0  0
   13.1295  -11.5653    0.5652 H   0  0
   13.2241  -10.5964   -0.9059 H   0  0
   15.5082   -9.8102   -0.2371 H   0  0
   15.4092  -10.7777    1.2361 H   0  0
   15.1743  -12.8563   -0.1452 H   0  0
   15.2709  -11.8888   -1.6181 H   0  0
   17.5603  -11.1063   -0.9530 H   0  0
   17.4636  -12.0763    0.5183 H   0  0
   18.7434  -13.2598   -1.2362 H   0  0
   17.3593  -13.1794   -2.3396 H   0  0
   17.2612  -14.1555   -0.8607 H   0  0
    9.2115  -10.0743    0.5664 H   0  0
    7.0696   -9.7772   -1.5281 H   0  0
    4.7133   -9.1482   -1.7538 H   0  0
    5.3051   -5.8218    0.9323 H   0  0
    3.1790   -6.2741    0.0293 H   0  0
    2.5498   -7.8421   -2.1905 H   0  0
    2.5445   -8.9606   -0.8211 H   0  0
    0.8977   -5.9949   -2.2943 H   0  0
   -1.2740   -5.1138   -1.5052 H   0  0
   -2.2833   -5.9795    0.5860 H   0  0
   -1.1267   -7.7426    1.8925 H   0  0
    1.0544   -8.6238    1.1240 H   0  0
  1  2  1  0
  1  9  2  0
  1 10  1  0
  2  3  1  0
  2 11  1  0
  2 29  1  0
  3  4  1  0
  3 30  1  0
  3 31  1  0
  4  5  1  0
  4 32  1  0
  4 33  1  0
  5  6  1  0
  5 34  1  0
  5 35  1  0
  6  7  1  0
  6 36  1  0
  6 37  1  0
  7  8  1  0
  7 38  1  0
  7 39  1  0
  8 40  1  0
  8 41  1  0
  8 42  1  0
 10 43  1  0
 11 13  1  0
 12 13  1  0
 12 16  1  0
 13 14  2  0
 14 15  1  0
 15 16  1  0
 15 17  2  0
 16 20  2  0
 17 18  1  0
 17 44  1  0
 18 19  2  0
 18 45  1  0
 19 20  1  0
 19 21  1  0
 20 46  1  0
 21 22  1  0
 21 47  1  0
 22 23  1  0
 22 48  1  0
 22 49  1  0
 23 24  1  0
 23 28  2  0
 24 25  2  0
 24 50  1  0
 25 26  1  0
 25 51  1  0
 26 27  2  0
 26 52  1  0
 27 28  1  0
 27 53  1  0
 28 54  1  0
M  END
> <Name>
CHEMBL4586557

> <Clean Energy>
29.825701

> <chembl_id>
CHEMBL4586557

> <chembl_pref_name>
None

> <efficacy>
0.44634378

> <Forcefield>
MMFF

> <ForcefieldBase>
MMFF

> <ForcefieldFFML>
<?xml version="1.0" encoding="UTF-8"?>
<!DOCTYPE ffml SYSTEM "Ffml.dtd">
<ffml version="1.0">
<forcefield name="MMFF" derivedFrom="MMFF" base="MMFF">
<atomTypes>
<atomType
name="C100"
element="C"
mass="12.011"
annotation=""/>
<atomType
name="O101"
element="O"
mass="16"
annotation=""/>
<atomType
name="S102"
element="S"
mass="32.066"
annotation=""/>
<atomType
name="N103"
element="N"
mass="14.007"
annotation=""/>
<atomType
name="H104"
element="H"
mass="1.008"
annotation=""/>
</atomTypes>
<parameters>
</parameters>
</forcefield>
</ffml>

> <Initial Potential Energy>
105.64336

> <Initial RMS Gradient>
27.29382

> <Minimization Criteria>
CONJUG> Minimization exiting with gradient tolerance ( 0.0100000) satisfied.

> <CHARMm Energy>
6.13053

> <Potential Energy>
6.13053

> <RMS Gradient>
0.00916

> <Bond Energy>
4.88345

> <Angle Energy>
12.68193

> <STRBend>
-1.38482

> <Dihedral Energy>
-4.17807

> <OOPLane>
0.07579

> <Van der Waals Energy>
46.01944

> <Electrostatic Energy>
-51.96719

> <Hydrogen Bond Energy>
0

> <Solvation Free Energy>
0

> <HasGasteigerCharges>
true

> <REMARK99>
REMARK  99  MacroMolecule created from Mol2 file
REMARK  99  CHEMBL4586557
REMARK  99  PROTEIN
REMARK  99  GASTEIGER
REMARK  99
REMARK  99

$$$$
CHEMBL3597387
  SciTegic05292516403D

 53 56  0  0  0  0            999 V2000
   -1.6497    1.1038    0.0708 C   0  0
   -1.6351   -0.2732    0.2864 C   0  0
   -0.5419   -1.0684   -0.0836 C   0  0
   -0.5363    1.7204   -0.5083 C   0  0
    0.5884    0.9432   -0.8905 C   0  0
    0.5632   -0.4406   -0.6766 C   0  0
    1.7587   -0.9504   -1.1472 N   0  0
    2.5306    0.0684   -1.6501 C   0  0
    1.8528    1.2609   -1.4856 C   0  0
    2.3619    2.6191   -1.8610 C   0  0
    3.4996    3.1292   -0.9986 C   0  0
    3.5977    2.6081    0.2456 O   0  0
    4.2752    3.9978   -1.3819 O   0  0
   -2.7944    1.7347    0.4826 O   0  0
   -3.0002    3.0862    0.0590 C   0  0
   -4.3960    3.5382    0.5044 C   0  0
   -4.6287    4.8749    0.0473 O   0  0
   -5.8452    5.4399    0.3212 C   0  0
   -6.0330    6.7106   -0.2344 C   0  0
   -7.2224    7.4105   -0.0363 C   0  0
   -8.2421    6.8406    0.7225 C   0  0
   -8.0598    5.5757    1.2790 C   0  0
   -6.8660    4.8726    1.0849 C   0  0
    2.1483   -2.3593   -1.1880 C   0  0
    3.0841   -2.7172   -0.0602 C   0  0
    4.4737   -2.6286   -0.2309 C   0  0
    5.3370   -2.9411    0.8196 C   0  0
    4.8243   -3.3503    2.0485 C   0  0
    3.4474   -3.4462    2.2310 C   0  0
    2.5810   -3.1273    1.1842 C   0  0
   -9.3200    4.8755    2.2221 Cl  0  0
   -2.4971   -0.7519    0.7474 H   0  0
   -0.5708   -2.1386    0.0902 H   0  0
   -0.5102    2.7909   -0.6742 H   0  0
    3.5085   -0.1357   -2.0724 H   0  0
    2.7230    2.5775   -2.8958 H   0  0
    1.5578    3.3607   -1.8159 H   0  0
    2.9211    1.9307    0.4477 H   0  0
   -2.2499    3.7463    0.5107 H   0  0
   -2.9257    3.1647   -1.0329 H   0  0
   -5.1453    2.8550    0.0854 H   0  0
   -4.4529    3.4926    1.5989 H   0  0
   -5.2388    7.1590   -0.8280 H   0  0
   -7.3537    8.3963   -0.4743 H   0  0
   -9.1699    7.3835    0.8770 H   0  0
   -6.7545    3.8964    1.5421 H   0  0
    1.2442   -2.9766   -1.1618 H   0  0
    2.6212   -2.5395   -2.1613 H   0  0
    4.9005   -2.3181   -1.1826 H   0  0
    6.4131   -2.8704    0.6790 H   0  0
    5.5009   -3.5999    2.8626 H   0  0
    3.0524   -3.7712    3.1904 H   0  0
    1.5084   -3.1984    1.3496 H   0  0
  1  2  2  0
  1 14  1  0
  2  3  1  0
  2 32  1  0
  3  6  2  0
  3 33  1  0
  4  1  1  0
  4 34  1  0
  5  4  2  0
  5  6  1  0
  6  7  1  0
  7  8  1  0
  7 24  1  0
  8  9  2  0
  8 35  1  0
  9  5  1  0
  9 10  1  0
 10 11  1  0
 10 36  1  0
 10 37  1  0
 11 12  1  0
 11 13  2  0
 12 38  1  0
 14 15  1  0
 15 16  1  0
 15 39  1  0
 15 40  1  0
 16 17  1  0
 16 41  1  0
 16 42  1  0
 17 18  1  0
 18 19  2  0
 19 20  1  0
 19 43  1  0
 20 21  2  0
 20 44  1  0
 21 22  1  0
 21 45  1  0
 22 23  2  0
 22 31  1  0
 23 18  1  0
 23 46  1  0
 24 25  1  0
 24 47  1  0
 24 48  1  0
 25 26  2  0
 26 27  1  0
 26 49  1  0
 27 28  2  0
 27 50  1  0
 28 29  1  0
 28 51  1  0
 29 30  2  0
 29 52  1  0
 30 25  1  0
 30 53  1  0
M  END
> <Name>
CHEMBL3597387

> <Clean Energy>
29.6187

> <chembl_id>
CHEMBL3597387

> <chembl_pref_name>
None

> <efficacy>
0.236

> <Forcefield>
MMFF

> <ForcefieldBase>
MMFF

> <ForcefieldFFML>
<?xml version="1.0" encoding="UTF-8"?>
<!DOCTYPE ffml SYSTEM "Ffml.dtd">
<ffml version="1.0">
<forcefield name="MMFF" derivedFrom="MMFF" base="MMFF">
<atomTypes>
<atomType
name="C100"
element="C"
mass="12.011"
annotation=""/>
<atomType
name="N101"
element="N"
mass="14.007"
annotation=""/>
<atomType
name="O102"
element="O"
mass="16"
annotation=""/>
<atomType
name="Cl103"
element="Cl"
mass="35.453"
annotation=""/>
<atomType
name="H104"
element="H"
mass="1.008"
annotation=""/>
</atomTypes>
<parameters>
</parameters>
</forcefield>
</ffml>

> <Initial Potential Energy>
199.05675

> <Initial RMS Gradient>
34.68434

> <Minimization Criteria>
CONJUG> Minimization exiting with gradient tolerance ( 0.0100000) satisfied.

> <CHARMm Energy>
76.85891

> <Potential Energy>
76.85891

> <RMS Gradient>
0.00844

> <Bond Energy>
5.81849

> <Angle Energy>
18.57376

> <STRBend>
-0.27661

> <Dihedral Energy>
-2.00393

> <OOPLane>
0.04169

> <Van der Waals Energy>
57.44438

> <Electrostatic Energy>
-2.73888

> <Hydrogen Bond Energy>
0

> <Solvation Free Energy>
0

> <HasGasteigerCharges>
true

> <REMARK99>
REMARK  99  MacroMolecule created from Mol2 file
REMARK  99  CHEMBL3597387
REMARK  99  PROTEIN
REMARK  99  GASTEIGER
REMARK  99
REMARK  99

$$$$
CHEMBL4072143
  SciTegic05292516403D

 46 49  0  0  0  0            999 V2000
    5.4737  -13.1259   -2.4594 O   0  0
    5.8858  -13.5033   -1.1210 S   0  0
    7.2258  -13.9716   -0.8258 O   0  0
    2.1860  -10.2236    1.1537 C   0  0
    1.9858  -11.2683    0.2590 C   0  0
    3.0722  -11.9621   -0.2850 C   0  0
    3.4742   -9.8278    1.5170 C   0  0
    4.5822  -10.5138    0.9793 C   0  0
    4.3713  -11.5878    0.1078 C   0  0
    5.6295  -12.0948   -0.1814 N   0  0
    6.6243  -11.2364    0.2674 C   0  0
    5.9854  -10.3225    1.0901 C   0  0
    4.7724  -14.7473   -0.5056 C   0  0
    8.0807  -11.3355   -0.1061 C   0  0
    8.8265  -10.0040    0.0474 C   0  0
   10.2759  -10.0858   -0.4404 C   0  0
    0.8282   -9.3912    1.8074 Cl  0  0
   10.9742   -8.7464   -0.3086 C   0  0
   10.4850   -7.7603    0.2183 O   0  0
   12.2216   -8.7515   -0.8319 O   0  0
    3.9879  -15.4535   -1.4304 C   0  0
    4.6981  -15.0088    0.8621 C   0  0
    3.8044  -15.9801    1.3343 C   0  0
    2.9930  -16.7004    0.4304 C   0  0
    3.1011  -16.4231   -0.9342 C   0  0
    2.0088  -17.4360   -1.7973 S   0  0
    1.5056  -18.1534   -0.3212 C   0  0
    2.0793  -17.6828    0.7645 N   0  0
    0.4721  -19.2261   -0.3276 C   0  0
    0.9758  -11.5512   -0.0295 H   0  0
    2.8873  -12.7556   -1.0016 H   0  0
    3.6254   -8.9877    2.1902 H   0  0
    6.4702   -9.5311    1.6513 H   0  0
    8.5607  -12.0970    0.5195 H   0  0
    8.1676  -11.6476   -1.1534 H   0  0
    8.3005   -9.2195   -0.5134 H   0  0
    8.8193   -9.6929    1.1001 H   0  0
   10.8287  -10.8223    0.1521 H   0  0
   10.2938  -10.3820   -1.4949 H   0  0
   12.4918   -9.6069   -1.2170 H   0  0
    4.0590  -15.2518   -2.4965 H   0  0
    5.3256  -14.4769    1.5747 H   0  0
    3.7257  -16.1917    2.3974 H   0  0
    0.4732  -19.7621    0.6274 H   0  0
    0.6575  -19.9568   -1.1214 H   0  0
   -0.5227  -18.7930   -0.4738 H   0  0
  2  1  2  0
  2 13  1  0
  3  2  2  0
  4  5  2  0
  4 17  1  0
  5  6  1  0
  5 30  1  0
  6  9  2  0
  6 31  1  0
  7  4  1  0
  7 32  1  0
  8  7  2  0
  8  9  1  0
  9 10  1  0
 10  2  1  0
 10 11  1  0
 11 12  2  0
 11 14  1  0
 12  8  1  0
 12 33  1  0
 13 21  2  0
 14 15  1  0
 14 34  1  0
 14 35  1  0
 15 16  1  0
 15 36  1  0
 15 37  1  0
 16 18  1  0
 16 38  1  0
 16 39  1  0
 18 19  2  0
 18 20  1  0
 20 40  1  0
 21 41  1  0
 22 13  1  0
 22 23  2  0
 22 42  1  0
 23 43  1  0
 24 23  1  0
 24 25  2  0
 25 21  1  0
 25 26  1  0
 26 27  1  0
 27 28  2  0
 27 29  1  0
 28 24  1  0
 29 44  1  0
 29 45  1  0
 29 46  1  0
M  END
> <Name>
CHEMBL4072143

> <Clean Energy>
60.945801

> <chembl_id>
CHEMBL4072143

> <chembl_pref_name>
None

> <efficacy>
0.36

> <Forcefield>
MMFF

> <ForcefieldBase>
MMFF

> <ForcefieldFFML>
<?xml version="1.0" encoding="UTF-8"?>
<!DOCTYPE ffml SYSTEM "Ffml.dtd">
<ffml version="1.0">
<forcefield name="MMFF" derivedFrom="MMFF" base="MMFF">
<atomTypes>
<atomType
name="O100"
element="O"
mass="16"
annotation=""/>
<atomType
name="S101"
element="S"
mass="32.066"
annotation=""/>
<atomType
name="C102"
element="C"
mass="12.011"
annotation=""/>
<atomType
name="N103"
element="N"
mass="14.007"
annotation=""/>
<atomType
name="Cl104"
element="Cl"
mass="35.453"
annotation=""/>
<atomType
name="H105"
element="H"
mass="1.008"
annotation=""/>
</atomTypes>
<parameters>
</parameters>
</forcefield>
</ffml>

> <Initial Potential Energy>
644.88276

> <Initial RMS Gradient>
357.80405

> <Minimization Criteria>
STEEPD> Minimization exiting with gradient tolerance ( 3.0000000) satisfied.

> <CHARMm Energy>
101.5541

> <Potential Energy>
101.5541

> <RMS Gradient>
0.16321

> <Bond Energy>
5.34978

> <Angle Energy>
13.86805

> <STRBend>
-0.15323

> <Dihedral Energy>
-6.32846

> <OOPLane>
0.05591

> <Van der Waals Energy>
37.29613

> <Electrostatic Energy>
51.46591

> <Hydrogen Bond Energy>
0

> <Solvation Free Energy>
0

> <HasGasteigerCharges>
true

> <REMARK99>
REMARK  99  MacroMolecule created from Mol2 file
REMARK  99  CHEMBL4072143
REMARK  99  PROTEIN
REMARK  99  GASTEIGER
REMARK  99
REMARK  99

$$$$
CHEMBL3914401
  SciTegic05292516403D

 52 55  0  0  0  0            999 V2000
   14.9245  -15.2104   -0.2211 C   0  0
   15.5505  -16.3445    0.3484 C   0  0
   16.9177  -16.5961    0.1117 C   0  0
   17.6703  -15.7538   -0.7028 C   0  0
   17.0692  -14.6445   -1.2821 C   0  0
   15.7186  -14.3769   -1.0411 C   0  0
   13.5225  -14.8038    0.0144 C   0  0
   13.0791  -14.4109    1.2859 C   0  0
   11.7601  -13.9761    1.4921 C   0  0
   10.8439  -13.9230    0.4314 C   0  0
   11.2801  -14.3201   -0.8392 C   0  0
   12.6001  -14.7459   -1.0449 C   0  0
   14.8742  -17.3539    1.2107 C   0  0
   15.4588  -17.8856    2.1493 O   0  0
   13.6119  -17.7336    0.8638 N   0  0
    9.4010  -13.5086    0.6614 C   0  0
    9.7457  -11.0177    0.2819 C   0  0  2  0  0  0
    9.0217  -12.2729   -0.0288 N   0  0
    7.6606  -12.0243   -0.2766 C   0  0
    7.2209  -10.7090   -0.0804 C   0  0
    8.5178   -9.6579    0.4749 S   0  0
    5.9001  -10.3208   -0.2775 C   0  0
    4.9762  -11.2714   -0.7023 C   0  0
    5.3887  -12.5886   -0.9213 C   0  0
    6.7242  -12.9634   -0.7100 C   0  0
   10.7271  -10.6804   -0.8581 C   0  0
   12.0562  -10.0812   -0.3815 C   0  0
   11.9296   -8.7140    0.2689 C   0  0
   17.3977  -17.4632    0.5646 H   0  0
   18.7218  -15.9631   -0.8788 H   0  0
   17.6500  -13.9752   -1.9122 H   0  0
   15.2851  -13.4834   -1.4893 H   0  0
   13.7658  -14.4325    2.1319 H   0  0
   11.4568  -13.6845    2.4960 H   0  0
   10.5908  -14.2864   -1.6817 H   0  0
   12.9058  -15.0308   -2.0505 H   0  0
   13.1333  -17.3776    0.0499 H   0  0
   13.1319  -18.4030    1.4484 H   0  0
    8.7861  -14.3581    0.3416 H   0  0
    9.2125  -13.3888    1.7363 H   0  0
   10.2717  -11.1202    1.2378 H   0  0
    5.5929   -9.2945   -0.1033 H   0  0
    3.9383  -10.9870   -0.8671 H   0  0
    4.6630  -13.3229   -1.2662 H   0  0
    7.0146  -13.9887   -0.9137 H   0  0
   10.9809  -11.5920   -1.4109 H   0  0
   10.2704  -10.0186   -1.6054 H   0  0
   12.5452  -10.7720    0.3155 H   0  0
   12.7216   -9.9908   -1.2488 H   0  0
   12.9238   -8.3050    0.4763 H   0  0
   11.3944   -8.7712    1.2209 H   0  0
   11.4066   -8.0116   -0.3874 H   0  0
  1  2  1  0
  1  6  2  0
  1  7  1  0
  2  3  2  0
  2 13  1  0
  3  4  1  0
  3 29  1  0
  4  5  2  0
  4 30  1  0
  5  6  1  0
  5 31  1  0
  6 32  1  0
  7  8  1  0
  7 12  2  0
  8  9  2  0
  8 33  1  0
  9 10  1  0
  9 34  1  0
 10 11  2  0
 10 16  1  0
 11 12  1  0
 11 35  1  0
 12 36  1  0
 13 14  2  0
 13 15  1  0
 15 37  1  0
 15 38  1  0
 16 18  1  0
 16 39  1  0
 16 40  1  0
 17 18  1  0
 17 21  1  0
 17 26  1  0
 17 41  1  0
 18 19  1  0
 19 20  1  0
 19 25  2  0
 20 21  1  0
 20 22  2  0
 22 23  1  0
 22 42  1  0
 23 24  2  0
 23 43  1  0
 24 25  1  0
 24 44  1  0
 25 45  1  0
 26 27  1  0
 26 46  1  0
 26 47  1  0
 27 28  1  0
 27 48  1  0
 27 49  1  0
 28 50  1  0
 28 51  1  0
 28 52  1  0
M  END
> <Name>
CHEMBL3914401

> <Clean Energy>
42.362801

> <chembl_id>
CHEMBL3914401

> <chembl_pref_name>
None

> <efficacy>
0.314339981

> <Forcefield>
MMFF

> <ForcefieldBase>
MMFF

> <ForcefieldFFML>
<?xml version="1.0" encoding="UTF-8"?>
<!DOCTYPE ffml SYSTEM "Ffml.dtd">
<ffml version="1.0">
<forcefield name="MMFF" derivedFrom="MMFF" base="MMFF">
<atomTypes>
<atomType
name="C100"
element="C"
mass="12.011"
annotation=""/>
<atomType
name="O101"
element="O"
mass="16"
annotation=""/>
<atomType
name="N102"
element="N"
mass="14.007"
annotation=""/>
<atomType
name="S103"
element="S"
mass="32.066"
annotation=""/>
<atomType
name="H104"
element="H"
mass="1.008"
annotation=""/>
</atomTypes>
<parameters>
</parameters>
</forcefield>
</ffml>

> <Initial Potential Energy>
194.50923

> <Initial RMS Gradient>
34.44566

> <Minimization Criteria>
CONJUG> Minimization exiting with gradient tolerance ( 0.0100000) satisfied.

> <CHARMm Energy>
58.55921

> <Potential Energy>
58.55921

> <RMS Gradient>
0.0095

> <Bond Energy>
8.15758

> <Angle Energy>
14.97852

> <STRBend>
0.45452

> <Dihedral Energy>
15.65011

> <OOPLane>
2.22214

> <Van der Waals Energy>
54.28912

> <Electrostatic Energy>
-37.19279

> <Hydrogen Bond Energy>
0

> <Solvation Free Energy>
0

> <HasGasteigerCharges>
true

> <REMARK99>
REMARK  99  MacroMolecule created from Mol2 file
REMARK  99  CHEMBL3914401
REMARK  99  PROTEIN
REMARK  99  GASTEIGER
REMARK  99
REMARK  99

$$$$
CHEMBL4792723
  SciTegic05292516403D

 57 60  0  0  0  0            999 V2000
    7.5639   -5.4161   -0.9199 C   0  0
    9.0350   -5.4899   -0.5631 C   0  0
   10.0091   -5.2707   -1.5454 C   0  0
   11.3669   -5.2619   -1.2121 C   0  0
   11.7876   -5.4868    0.1026 C   0  0
   10.8170   -5.7259    1.0809 C   0  0
    9.4528   -5.7321    0.7538 C   0  0
   13.1445   -5.3703    0.4561 N   0  0
   13.7828   -6.3947    0.1277 N   0  0
    6.8779   -4.0985   -0.4995 C   0  0  2  0  0  0
    5.3958   -4.2715   -0.5792 N   0  0
    7.3181   -2.9370   -1.4173 C   0  0
    6.2729   -2.3434   -2.0581 O   0  0
    8.4705   -2.5596   -1.5729 O   0  0
    4.4612   -3.6825    0.2645 C   0  0
    4.8183   -2.7506    1.2492 C   0  0
    3.8551   -2.1330    2.0614 C   0  0
    2.5030   -2.4221    1.9042 C   0  0
    2.1105   -3.3387    0.9371 C   0  0
    3.0824   -3.9635    0.1403 C   0  0
    2.5870   -4.9146   -0.8700 C   0  0
    2.4579   -6.3633   -0.5505 C   0  0
    2.2685   -4.4767   -1.9716 O   0  0
    1.8513   -7.1998   -1.4976 C   0  0
    1.7139   -8.5656   -1.2448 C   0  0
    2.1759   -9.1034   -0.0452 C   0  0
    2.7772   -8.2771    0.9029 C   0  0
    2.9164   -6.9088    0.6549 C   0  0
   15.1604   -6.1910    0.3545 C   0  0
   15.6714   -5.9311    1.6354 C   0  0
   17.0298   -5.6837    1.8171 C   0  0
   17.8862   -5.7087    0.7189 C   0  0
   17.4023   -6.0053   -0.5532 C   0  0
   16.0425   -6.2497   -0.7321 C   0  0
    7.4386   -5.5766   -1.9991 H   0  0
    7.0617   -6.2659   -0.4378 H   0  0
    9.7229   -5.0588   -2.5739 H   0  0
   12.1054   -5.0474   -1.9800 H   0  0
   11.1334   -5.8878    2.1088 H   0  0
    8.7232   -5.9090    1.5411 H   0  0
    7.1728   -3.8508    0.5249 H   0  0
    5.0591   -4.9448   -1.2681 H   0  0
    5.4316   -2.7656   -1.7672 H   0  0
    5.8525   -2.4560    1.4073 H   0  0
    4.1713   -1.4094    2.8101 H   0  0
    1.7588   -1.9264    2.5236 H   0  0
    1.0535   -3.5559    0.7931 H   0  0
    1.4688   -6.7919   -2.4327 H   0  0
    1.2361   -9.2078   -1.9814 H   0  0
    2.0613  -10.1670    0.1515 H   0  0
    3.1456   -8.6984    1.8357 H   0  0
    3.3911   -6.2934    1.4140 H   0  0
   14.9994   -5.9012    2.4883 H   0  0
   17.4322   -5.4748    2.8069 H   0  0
   18.9439   -5.5041    0.8568 H   0  0
   18.0931   -6.0457   -1.3943 H   0  0
   15.6575   -6.4678   -1.7244 H   0  0
  1  2  1  0
  1 10  1  0
  1 35  1  0
  1 36  1  0
  2  3  2  0
  3  4  1  0
  3 37  1  0
  4  5  2  0
  4 38  1  0
  5  6  1  0
  5  8  1  0
  6  7  2  0
  6 39  1  0
  7  2  1  0
  7 40  1  0
  8  9  2  0
  9 29  1  0
 10 11  1  0
 10 12  1  0
 10 41  1  0
 11 15  1  0
 11 42  1  0
 12 13  1  0
 12 14  2  0
 13 43  1  0
 15 16  2  0
 16 17  1  0
 16 44  1  0
 17 18  2  0
 17 45  1  0
 18 19  1  0
 18 46  1  0
 19 20  2  0
 19 47  1  0
 20 15  1  0
 20 21  1  0
 21 22  1  0
 21 23  2  0
 22 24  2  0
 24 25  1  0
 24 48  1  0
 25 26  2  0
 25 49  1  0
 26 27  1  0
 26 50  1  0
 27 28  2  0
 27 51  1  0
 28 22  1  0
 28 52  1  0
 29 30  2  0
 30 31  1  0
 30 53  1  0
 31 32  2  0
 31 54  1  0
 32 33  1  0
 32 55  1  0
 33 34  2  0
 33 56  1  0
 34 29  1  0
 34 57  1  0
M  END
> <Name>
CHEMBL4792723

> <Clean Energy>
44.6087

> <chembl_id>
CHEMBL4792723

> <chembl_pref_name>
None

> <efficacy>
0.258309592

> <Forcefield>
MMFF

> <ForcefieldBase>
MMFF

> <ForcefieldFFML>
<?xml version="1.0" encoding="UTF-8"?>
<!DOCTYPE ffml SYSTEM "Ffml.dtd">
<ffml version="1.0">
<forcefield name="MMFF" derivedFrom="MMFF" base="MMFF">
<atomTypes>
<atomType
name="C100"
element="C"
mass="12.011"
annotation=""/>
<atomType
name="N101"
element="N"
mass="14.007"
annotation=""/>
<atomType
name="O102"
element="O"
mass="16"
annotation=""/>
<atomType
name="H103"
element="H"
mass="1.008"
annotation=""/>
</atomTypes>
<parameters>
</parameters>
</forcefield>
</ffml>

> <Initial Potential Energy>
360.28546

> <Initial RMS Gradient>
50.36693

> <Minimization Criteria>
STEEPD> Minimization exiting with gradient tolerance ( 3.0000000) satisfied.

> <CHARMm Energy>
154.13373

> <Potential Energy>
154.13373

> <RMS Gradient>
0.04945

> <Bond Energy>
8.68796

> <Angle Energy>
12.25548

> <STRBend>
1.09623

> <Dihedral Energy>
19.98306

> <OOPLane>
0.13099

> <Van der Waals Energy>
72.36555

> <Electrostatic Energy>
39.61447

> <Hydrogen Bond Energy>
0

> <Solvation Free Energy>
0

> <HasGasteigerCharges>
true

> <REMARK99>
REMARK  99  MacroMolecule created from Mol2 file
REMARK  99  CHEMBL4792723
REMARK  99  PROTEIN
REMARK  99  GASTEIGER
REMARK  99
REMARK  99

$$$$
CHEMBL4860595
  SciTegic05292516403D

 52 55  0  0  0  0            999 V2000
   11.3125  -13.2014    0.7643 C   0  0
   11.5175  -14.2408   -0.1420 C   0  0
   12.7375  -14.3852   -0.8118 C   0  0
   12.3254  -12.2688    1.0377 C   0  0
   13.5607  -12.3912    0.3561 C   0  0
   13.7402  -13.4399   -0.5476 C   0  0
   15.0266  -13.2730   -1.0209 N   0  0
   15.5493  -12.1277   -0.4537 C   0  0
   14.7006  -11.6195    0.4136 N   0  0
   16.9070  -11.5762   -0.7630 C   0  0
   17.0152  -10.0858   -0.4338 C   0  0
   18.3894   -9.5376   -0.7854 C   0  0
   15.7075  -14.1545   -1.9628 C   0  0
   16.9446  -14.7896   -1.3706 C   0  0
   16.9207  -15.3776   -0.0989 C   0  0
   18.0800  -15.9261    0.4520 C   0  0
   19.2863  -15.9329   -0.2632 C   0  0
   19.2989  -15.3744   -1.5492 C   0  0
   18.1418  -14.8135   -2.0993 C   0  0
   20.5083  -16.4999    0.3301 C   0  0
   20.6289  -17.8659    0.6599 C   0  0
   21.7989  -18.3427    1.2682 C   0  0
   22.8588  -17.4794    1.5399 C   0  0
   22.7637  -16.1345    1.2016 C   0  0
   21.5990  -15.6495    0.6043 C   0  0
   11.9684  -11.2951    1.9645 O   0  0
   13.0207  -10.4195    2.3527 C   0  0
   19.5798  -18.8080    0.3817 C   0  0
   18.7391  -19.5820    0.1744 N   0  0
   10.3542  -13.1107    1.2722 H   0  0
   10.7167  -14.9535   -0.3283 H   0  0
   12.8811  -15.2004   -1.5130 H   0  0
   17.6557  -12.1305   -0.1851 H   0  0
   17.1343  -11.7179   -1.8256 H   0  0
   16.2511   -9.5225   -0.9832 H   0  0
   16.8273   -9.9200    0.6340 H   0  0
   18.4469   -8.4729   -0.5392 H   0  0
   18.5943   -9.6505   -1.8550 H   0  0
   19.1739  -10.0591   -0.2276 H   0  0
   15.0200  -14.9416   -2.2871 H   0  0
   15.9478  -13.5419   -2.8395 H   0  0
   16.0051  -15.3941    0.4912 H   0  0
   18.0305  -16.3451    1.4560 H   0  0
   20.2164  -15.3743   -2.1358 H   0  0
   18.1907  -14.3855   -3.0987 H   0  0
   21.8852  -19.3936    1.5352 H   0  0
   23.7593  -17.8538    2.0171 H   0  0
   23.5943  -15.4627    1.4089 H   0  0
   21.5354  -14.5878    0.3674 H   0  0
   12.6267   -9.7593    3.1322 H   0  0
   13.3321   -9.7835    1.5180 H   0  0
   13.8623  -10.9697    2.7865 H   0  0
  1  2  2  0
  1 30  1  0
  2  3  1  0
  2 31  1  0
  3  6  2  0
  3 32  1  0
  4  1  1  0
  4 26  1  0
  5  4  2  0
  5  6  1  0
  6  7  1  0
  7  8  1  0
  7 13  1  0
  8  9  2  0
  8 10  1  0
  9  5  1  0
 10 11  1  0
 10 33  1  0
 10 34  1  0
 11 12  1  0
 11 35  1  0
 11 36  1  0
 12 37  1  0
 12 38  1  0
 12 39  1  0
 13 14  1  0
 13 40  1  0
 13 41  1  0
 14 15  2  0
 15 16  1  0
 15 42  1  0
 16 17  2  0
 16 43  1  0
 17 18  1  0
 17 20  1  0
 18 19  2  0
 18 44  1  0
 19 14  1  0
 19 45  1  0
 20 21  2  0
 21 22  1  0
 21 28  1  0
 22 23  2  0
 22 46  1  0
 23 24  1  0
 23 47  1  0
 24 25  2  0
 24 48  1  0
 25 20  1  0
 25 49  1  0
 26 27  1  0
 27 50  1  0
 27 51  1  0
 27 52  1  0
 28 29  3  0
M  END
> <Name>
CHEMBL4860595

> <Clean Energy>
69.668098

> <chembl_id>
CHEMBL4860595

> <chembl_pref_name>
None

> <efficacy>
0.435897436

> <Forcefield>
MMFF

> <ForcefieldBase>
MMFF

> <ForcefieldFFML>
<?xml version="1.0" encoding="UTF-8"?>
<!DOCTYPE ffml SYSTEM "Ffml.dtd">
<ffml version="1.0">
<forcefield name="MMFF" derivedFrom="MMFF" base="MMFF">
<atomTypes>
<atomType
name="C100"
element="C"
mass="12.011"
annotation=""/>
<atomType
name="N101"
element="N"
mass="14.007"
annotation=""/>
<atomType
name="O102"
element="O"
mass="16"
annotation=""/>
<atomType
name="H103"
element="H"
mass="1.008"
annotation=""/>
</atomTypes>
<parameters>
</parameters>
</forcefield>
</ffml>

> <Initial Potential Energy>
278.12992

> <Initial RMS Gradient>
33.50644

> <Minimization Criteria>
STEEPD> Minimization exiting with gradient tolerance ( 3.0000000) satisfied.

> <CHARMm Energy>
102.54732

> <Potential Energy>
102.54732

> <RMS Gradient>
0.11917

> <Bond Energy>
6.89039

> <Angle Energy>
9.30681

> <STRBend>
-0.28629

> <Dihedral Energy>
1.81643

> <OOPLane>
0.01631

> <Van der Waals Energy>
57.14215

> <Electrostatic Energy>
27.66153

> <Hydrogen Bond Energy>
0

> <Solvation Free Energy>
0

> <HasGasteigerCharges>
true

> <REMARK99>
REMARK  99  MacroMolecule created from Mol2 file
REMARK  99  CHEMBL4860595
REMARK  99  PROTEIN
REMARK  99  GASTEIGER
REMARK  99
REMARK  99

$$$$
CHEMBL4290919
  SciTegic05292516403D

 75 79  0  0  0  0            999 V2000
   47.0864  -13.3241   -1.3096 O   0  0
   46.4211  -12.8521   -0.1157 S   0  0
   46.6787  -13.4132    1.1909 O   0  0
   34.5031   -9.3930    0.8762 C   0  0
   34.3259  -10.5973    0.1981 C   0  0
   35.4495  -11.3070   -0.2706 C   0  0
   35.7867   -8.8817    1.1095 C   0  0
   36.8922   -9.6053    0.6397 C   0  0
   36.7572  -10.8123   -0.0513 C   0  0
   38.0792  -11.2749   -0.4045 C   0  0
   38.9577  -10.3243    0.0925 C   0  0
   38.2413   -9.3460    0.7265 N   0  0
   38.8234   -8.1975    1.3851 C   0  0
   33.0557  -11.1525   -0.0702 N   0  0
   31.8133  -10.6676    0.3127 C   0  0
   30.7956  -11.4415   -0.2172 N   0  0
   31.5829   -9.7007    1.0270 O   0  0
   29.3896  -11.1716    0.0591 C   0  0
   38.3733  -12.5176   -1.2040 C   0  0
   39.8162  -12.9384   -0.9911 C   0  0
   40.1820  -13.8773   -0.0023 C   0  0
   41.5315  -14.2098    0.1734 C   0  0
   42.5161  -13.6057   -0.6184 C   0  0
   42.1616  -12.7072   -1.6281 C   0  0
   40.8187  -12.3820   -1.8138 C   0  0
   39.1545  -14.4024    0.7391 O   0  0
   39.4759  -15.4270    1.6756 C   0  0
   43.9346  -13.9034   -0.3169 C   0  0
   44.2841  -15.0232    0.0138 O   0  0
   44.7823  -12.7911   -0.4149 N   0  0
   46.7671  -11.1059    0.0144 C   0  0
   47.3164  -10.4193   -1.0714 C   0  0
   47.5650   -9.0544   -0.9478 C   0  0
   47.2732   -8.3829    0.2416 C   0  0
   46.7326   -9.0791    1.3248 C   0  0
   46.4822  -10.4462    1.2162 C   0  0
   28.8366  -10.1281   -0.9196 C   0  0
   27.3444   -9.8869   -0.7047 C   0  0
   26.5468  -11.1862   -0.7598 C   0  0
   27.0931  -12.2226    0.2175 C   0  0
   28.5815  -12.4730   -0.0072 C   0  0
   48.2300   -8.1832   -2.2748 Cl  0  0
   33.6545   -8.8147    1.2401 H   0  0
   35.3091  -12.2404   -0.8079 H   0  0
   35.9076   -7.9433    1.6404 H   0  0
   40.0380  -10.2695    0.0487 H   0  0
   38.5098   -7.2983    0.8494 H   0  0
   39.9131   -8.2782    1.3705 H   0  0
   38.4709   -8.1749    2.4196 H   0  0
   33.0312  -12.0248   -0.5714 H   0  0
   31.0222  -12.1072   -0.9388 H   0  0
   29.3172  -10.7682    1.0775 H   0  0
   37.6877  -13.3276   -0.9317 H   0  0
   38.2007  -12.3130   -2.2682 H   0  0
   41.8510  -14.9155    0.9362 H   0  0
   42.9146  -12.2751   -2.2846 H   0  0
   40.5476  -11.6756   -2.5972 H   0  0
   40.1221  -15.0429    2.4715 H   0  0
   39.9271  -16.2914    1.1774 H   0  0
   38.5413  -15.7596    2.1379 H   0  0
   44.3872  -11.8630   -0.5201 H   0  0
   47.5453  -10.9371   -1.9998 H   0  0
   47.4707   -7.3172    0.3327 H   0  0
   46.5120   -8.5560    2.2528 H   0  0
   46.0736  -10.9903    2.0665 H   0  0
   29.3779   -9.1809   -0.8076 H   0  0
   29.0064  -10.4604   -1.9523 H   0  0
   27.1903   -9.4059    0.2692 H   0  0
   26.9704   -9.1928   -1.4659 H   0  0
   25.4944  -10.9831   -0.5314 H   0  0
   26.5801  -11.5922   -1.7784 H   0  0
   26.9325  -11.8760    1.2458 H   0  0
   26.5401  -13.1622    0.1066 H   0  0
   28.7253  -12.9535   -0.9841 H   0  0
   28.9520  -13.1815    0.7435 H   0  0
  2  1  2  0
  2 31  1  0
  3  2  2  0
  4  5  2  0
  4 43  1  0
  5  6  1  0
  5 14  1  0
  6  9  2  0
  6 44  1  0
  7  4  1  0
  7 45  1  0
  8  7  2  0
  8  9  1  0
  9 10  1  0
 10 11  2  0
 10 19  1  0
 11 12  1  0
 11 46  1  0
 12  8  1  0
 12 13  1  0
 13 47  1  0
 13 48  1  0
 13 49  1  0
 14 15  1  0
 14 50  1  0
 15 16  1  0
 15 17  2  0
 16 18  1  0
 16 51  1  0
 18 37  1  0
 18 41  1  0
 18 52  1  0
 19 20  1  0
 19 53  1  0
 19 54  1  0
 20 21  2  0
 21 22  1  0
 21 26  1  0
 22 23  2  0
 22 55  1  0
 23 24  1  0
 23 28  1  0
 24 25  2  0
 24 56  1  0
 25 20  1  0
 25 57  1  0
 26 27  1  0
 27 58  1  0
 27 59  1  0
 27 60  1  0
 28 29  2  0
 28 30  1  0
 30  2  1  0
 30 61  1  0
 31 32  2  0
 32 33  1  0
 32 62  1  0
 33 34  2  0
 33 42  1  0
 34 35  1  0
 34 63  1  0
 35 36  2  0
 35 64  1  0
 36 31  1  0
 36 65  1  0
 37 38  1  0
 37 66  1  0
 37 67  1  0
 38 39  1  0
 38 68  1  0
 38 69  1  0
 39 40  1  0
 39 70  1  0
 39 71  1  0
 40 41  1  0
 40 72  1  0
 40 73  1  0
 41 74  1  0
 41 75  1  0
M  END
> <Name>
CHEMBL4290919

> <Clean Energy>
56.934601

> <chembl_id>
CHEMBL4290919

> <chembl_pref_name>
None

> <efficacy>
0.170940171

> <Forcefield>
MMFF

> <ForcefieldBase>
MMFF

> <ForcefieldFFML>
<?xml version="1.0" encoding="UTF-8"?>
<!DOCTYPE ffml SYSTEM "Ffml.dtd">
<ffml version="1.0">
<forcefield name="MMFF" derivedFrom="MMFF" base="MMFF">
<atomTypes>
<atomType
name="O100"
element="O"
mass="16"
annotation=""/>
<atomType
name="S101"
element="S"
mass="32.066"
annotation=""/>
<atomType
name="C102"
element="C"
mass="12.011"
annotation=""/>
<atomType
name="N103"
element="N"
mass="14.007"
annotation=""/>
<atomType
name="Cl104"
element="Cl"
mass="35.453"
annotation=""/>
<atomType
name="H105"
element="H"
mass="1.008"
annotation=""/>
</atomTypes>
<parameters>
</parameters>
</forcefield>
</ffml>

> <Initial Potential Energy>
104.11803

> <Initial RMS Gradient>
43.03185

> <Minimization Criteria>
STEEPD> Minimization exiting with gradient tolerance ( 3.0000000) satisfied.

> <CHARMm Energy>
-100.82685

> <Potential Energy>
-100.82685

> <RMS Gradient>
0.15198

> <Bond Energy>
8.65688

> <Angle Energy>
18.80313

> <STRBend>
-0.17383

> <Dihedral Energy>
-9.67381

> <OOPLane>
0.1349

> <Van der Waals Energy>
73.95903

> <Electrostatic Energy>
-192.53315

> <Hydrogen Bond Energy>
0

> <Solvation Free Energy>
0

> <HasGasteigerCharges>
true

> <REMARK99>
REMARK  99  MacroMolecule created from Mol2 file
REMARK  99  CHEMBL4290919
REMARK  99  PROTEIN
REMARK  99  GASTEIGER
REMARK  99
REMARK  99

$$$$
CHEMBL4289768
  SciTegic05292516403D

 75 79  0  0  0  0            999 V2000
   46.8121  -20.1947   -1.4042 O   0  0
   46.2269  -19.6573   -0.1958 S   0  0
   46.5437  -20.1772    1.1156 O   0  0
   34.2100  -16.3702    1.0025 C   0  0
   34.0408  -17.5396    0.2639 C   0  0
   35.1713  -18.2473   -0.1926 C   0  0
   35.4912  -15.8902    1.3049 C   0  0
   36.6027  -16.6100    0.8441 C   0  0
   36.4770  -17.7849    0.0983 C   0  0
   37.8057  -18.2584   -0.2151 C   0  0
   38.6771  -17.3448    0.3575 C   0  0
   37.9505  -16.3734    0.9900 N   0  0
   38.5242  -15.2524    1.7005 C   0  0
   32.7728  -18.0651   -0.0695 N   0  0
   31.5243  -17.5679    0.2775 C   0  0
   30.5124  -18.3340   -0.2760 N   0  0
   31.2816  -16.5951    0.9811 O   0  0
   29.1041  -18.0406   -0.0455 C   0  0
   38.1137  -19.4844   -1.0378 C   0  0
   39.5747  -19.8617   -0.8650 C   0  0
   39.9908  -20.8061    0.0982 C   0  0
   41.3554  -21.0864    0.2508 C   0  0
   42.3067  -20.4275   -0.5395 C   0  0
   41.9034  -19.5235   -1.5248 C   0  0
   40.5450  -19.2488   -1.6874 C   0  0
   38.9932  -21.3912    0.8363 O   0  0
   39.3766  -22.3882    1.7785 C   0  0
   43.7378  -20.6959   -0.2756 C   0  0
   44.1114  -21.8114    0.0446 O   0  0
   44.5736  -19.5759   -0.3996 N   0  0
   46.6358  -17.9214   -0.1613 C   0  0
   46.9861  -17.2716   -1.3467 C   0  0
   47.3201  -15.9244   -1.2953 C   0  0
   47.3151  -15.2264   -0.0902 C   0  0
   46.9827  -15.8852    1.0942 C   0  0
   46.6431  -17.2388    1.0624 C   0  0
   28.5990  -16.9949   -1.0476 C   0  0
   27.1081  -16.7187   -0.8690 C   0  0
   26.2836  -18.0009   -0.9377 C   0  0
   26.7845  -19.0467    0.0542 C   0  0
   28.2739  -19.3265   -0.1290 C   0  0
   47.6553  -15.2845   -2.4231 F   0  0
   33.3564  -15.7974    1.3644 H   0  0
   35.0369  -19.1555   -0.7725 H   0  0
   35.6067  -14.9802    1.8842 H   0  0
   39.7593  -17.3114    0.3677 H   0  0
   38.1883  -14.3307    1.2182 H   0  0
   39.6149  -15.3123    1.6639 H   0  0
   38.1868  -15.2908    2.7395 H   0  0
   32.7502  -18.9177   -0.6035 H   0  0
   30.7512  -19.0256   -0.9687 H   0  0
   29.0067  -17.6291    0.9676 H   0  0
   37.4581  -20.3152   -0.7538 H   0  0
   37.9084  -19.2746   -2.0951 H   0  0
   41.7154  -21.7981    0.9909 H   0  0
   42.6300  -19.0508   -2.1831 H   0  0
   40.2371  -18.5366   -2.4517 H   0  0
   39.9971  -21.9582    2.5713 H   0  0
   39.8808  -23.2268    1.2866 H   0  0
   38.4645  -22.7753    2.2428 H   0  0
   44.1771  -18.6470   -0.4835 H   0  0
   47.0087  -17.7936   -2.2988 H   0  0
   47.5797  -14.1734   -0.0799 H   0  0
   46.9995  -15.3456    2.0388 H   0  0
   46.3975  -17.7558    1.9889 H   0  0
   29.1587  -16.0589   -0.9323 H   0  0
   28.7850  -17.3426   -2.0724 H   0  0
   26.9418  -16.2300    0.0989 H   0  0
   26.7680  -16.0202   -1.6420 H   0  0
   25.2309  -17.7740   -0.7342 H   0  0
   26.3315  -18.4105   -1.9540 H   0  0
   26.6024  -18.6961    1.0775 H   0  0
   26.2168  -19.9757   -0.0712 H   0  0
   28.4352  -19.8137   -1.0998 H   0  0
   28.6098  -20.0390    0.6345 H   0  0
  2  1  2  0
  2 31  1  0
  3  2  2  0
  4  5  2  0
  4 43  1  0
  5  6  1  0
  5 14  1  0
  6  9  2  0
  6 44  1  0
  7  4  1  0
  7 45  1  0
  8  7  2  0
  8  9  1  0
  9 10  1  0
 10 11  2  0
 10 19  1  0
 11 12  1  0
 11 46  1  0
 12  8  1  0
 12 13  1  0
 13 47  1  0
 13 48  1  0
 13 49  1  0
 14 15  1  0
 14 50  1  0
 15 16  1  0
 15 17  2  0
 16 18  1  0
 16 51  1  0
 18 37  1  0
 18 41  1  0
 18 52  1  0
 19 20  1  0
 19 53  1  0
 19 54  1  0
 20 21  2  0
 21 22  1  0
 21 26  1  0
 22 23  2  0
 22 55  1  0
 23 24  1  0
 23 28  1  0
 24 25  2  0
 24 56  1  0
 25 20  1  0
 25 57  1  0
 26 27  1  0
 27 58  1  0
 27 59  1  0
 27 60  1  0
 28 29  2  0
 28 30  1  0
 30  2  1  0
 30 61  1  0
 31 32  2  0
 32 33  1  0
 32 62  1  0
 33 34  2  0
 33 42  1  0
 34 35  1  0
 34 63  1  0
 35 36  2  0
 35 64  1  0
 36 31  1  0
 36 65  1  0
 37 38  1  0
 37 66  1  0
 37 67  1  0
 38 39  1  0
 38 68  1  0
 38 69  1  0
 39 40  1  0
 39 70  1  0
 39 71  1  0
 40 41  1  0
 40 72  1  0
 40 73  1  0
 41 74  1  0
 41 75  1  0
M  END
> <Name>
CHEMBL4289768

> <Clean Energy>
57.137798

> <chembl_id>
CHEMBL4289768

> <chembl_pref_name>
None

> <efficacy>
0.199430199

> <Forcefield>
MMFF

> <ForcefieldBase>
MMFF

> <ForcefieldFFML>
<?xml version="1.0" encoding="UTF-8"?>
<!DOCTYPE ffml SYSTEM "Ffml.dtd">
<ffml version="1.0">
<forcefield name="MMFF" derivedFrom="MMFF" base="MMFF">
<atomTypes>
<atomType
name="O100"
element="O"
mass="16"
annotation=""/>
<atomType
name="S101"
element="S"
mass="32.066"
annotation=""/>
<atomType
name="C102"
element="C"
mass="12.011"
annotation=""/>
<atomType
name="N103"
element="N"
mass="14.007"
annotation=""/>
<atomType
name="F104"
element="F"
mass="18.998"
annotation=""/>
<atomType
name="H105"
element="H"
mass="1.008"
annotation=""/>
</atomTypes>
<parameters>
</parameters>
</forcefield>
</ffml>

> <Initial Potential Energy>
102.84013

> <Initial RMS Gradient>
43.0147

> <Minimization Criteria>
STEEPD> Minimization exiting with gradient tolerance ( 3.0000000) satisfied.

> <CHARMm Energy>
-102.87059

> <Potential Energy>
-102.87059

> <RMS Gradient>
0.14695

> <Bond Energy>
8.64258

> <Angle Energy>
18.7805

> <STRBend>
-0.13671

> <Dihedral Energy>
-10.31572

> <OOPLane>
0.09984

> <Van der Waals Energy>
73.72507

> <Electrostatic Energy>
-193.66614

> <Hydrogen Bond Energy>
0

> <Solvation Free Energy>
0

> <HasGasteigerCharges>
true

> <REMARK99>
REMARK  99  MacroMolecule created from Mol2 file
REMARK  99  CHEMBL4289768
REMARK  99  PROTEIN
REMARK  99  GASTEIGER
REMARK  99
REMARK  99

$$$$
CHEMBL2338480
  SciTegic05292516403D

 40 42  0  0  0  0            999 V2000
   17.3621  -12.8129   -0.8909 C   0  0
   16.1147  -13.3432   -1.2430 C   0  0
   14.9573  -12.6744   -0.8216 C   0  0
   15.0426  -11.5123   -0.0387 C   0  0
   16.2893  -11.0070    0.3280 C   0  0
   17.4493  -11.6542   -0.1041 C   0  0
   16.1937   -8.3140    0.2136 S   0  0
   16.3958   -9.7851    1.0753 N   0  0
   14.5301   -7.8181    0.5756 C   0  0
   13.8374   -6.9509   -0.2753 C   0  0
   12.5393   -6.5424    0.0602 C   0  0
   11.9476   -6.9825    1.2425 C   0  0
   12.6374   -7.8369    2.0986 C   0  0
   13.9284   -8.2568    1.7675 C   0  0
   16.0212  -14.3975   -2.1254 O   0  0
   15.9878  -16.6959   -2.6222 C   0  0
   16.0464  -15.6908   -1.6557 C   0  0
   16.1233  -16.0916   -0.3259 C   0  0
   16.1364  -17.4608   -0.0129 C   0  0
   16.0855  -18.3795   -1.0621 C   0  0
   16.0030  -18.0317   -2.3644 N   0  0
   16.2685  -17.9187    1.4056 C   0  0
   16.3178   -8.6340   -1.1904 O   0  0
   17.0498   -7.3544    0.8806 O   0  0
   10.3634   -6.4541    1.6565 Cl  0  0
   14.5024   -6.2665   -1.7135 Cl  0  0
   13.3859  -13.2395   -1.2634 Cl  0  0
   18.8336  -13.5400   -1.4297 Cl  0  0
   14.1326  -11.0070    0.2717 H   0  0
   18.4273  -11.2462    0.1397 H   0  0
   17.2298   -9.6864    1.6596 H   0  0
   11.9968   -5.8591   -0.5907 H   0  0
   12.1798   -8.1646    3.0299 H   0  0
   14.4586   -8.9104    2.4566 H   0  0
   15.9279  -16.4367   -3.6764 H   0  0
   16.1750  -15.3656    0.4788 H   0  0
   16.1103  -19.4557   -0.8847 H   0  0
   15.8148  -18.9061    1.5425 H   0  0
   15.7576  -17.2299    2.0866 H   0  0
   17.3251  -17.9751    1.6850 H   0  0
  1  2  1  0
  1  6  2  0
  1 28  1  0
  2  3  2  0
  2 15  1  0
  3  4  1  0
  3 27  1  0
  4  5  2  0
  4 29  1  0
  5  6  1  0
  5  8  1  0
  6 30  1  0
  7  8  1  0
  7  9  1  0
  7 23  2  0
  7 24  2  0
  8 31  1  0
  9 10  1  0
  9 14  2  0
 10 11  2  0
 10 26  1  0
 11 12  1  0
 11 32  1  0
 12 13  2  0
 12 25  1  0
 13 14  1  0
 13 33  1  0
 14 34  1  0
 15 17  1  0
 16 17  1  0
 16 21  2  0
 16 35  1  0
 17 18  2  0
 18 19  1  0
 18 36  1  0
 19 20  2  0
 19 22  1  0
 20 21  1  0
 20 37  1  0
 22 38  1  0
 22 39  1  0
 22 40  1  0
M  END
> <Name>
CHEMBL2338480

> <Clean Energy>
51.699299

> <chembl_id>
CHEMBL2338480

> <chembl_pref_name>
None

> <efficacy>
0.25

> <Forcefield>
MMFF

> <ForcefieldBase>
MMFF

> <ForcefieldFFML>
<?xml version="1.0" encoding="UTF-8"?>
<!DOCTYPE ffml SYSTEM "Ffml.dtd">
<ffml version="1.0">
<forcefield name="MMFF" derivedFrom="MMFF" base="MMFF">
<atomTypes>
<atomType
name="C100"
element="C"
mass="12.011"
annotation=""/>
<atomType
name="S101"
element="S"
mass="32.066"
annotation=""/>
<atomType
name="N102"
element="N"
mass="14.007"
annotation=""/>
<atomType
name="O103"
element="O"
mass="16"
annotation=""/>
<atomType
name="Cl104"
element="Cl"
mass="35.453"
annotation=""/>
<atomType
name="H105"
element="H"
mass="1.008"
annotation=""/>
</atomTypes>
<parameters>
</parameters>
</forcefield>
</ffml>

> <Initial Potential Energy>
625.81279

> <Initial RMS Gradient>
296.06072

> <Minimization Criteria>
STEEPD> Minimization exiting with gradient tolerance ( 3.0000000) satisfied.

> <CHARMm Energy>
9.07476

> <Potential Energy>
9.07476

> <RMS Gradient>
0.03841

> <Bond Energy>
4.37029

> <Angle Energy>
14.05062

> <STRBend>
1.28986

> <Dihedral Energy>
11.41758

> <OOPLane>
0.24446

> <Van der Waals Energy>
51.07274

> <Electrostatic Energy>
-73.37079

> <Hydrogen Bond Energy>
0

> <Solvation Free Energy>
0

> <HasGasteigerCharges>
true

> <REMARK99>
REMARK  99  MacroMolecule created from Mol2 file
REMARK  99  CHEMBL2338480
REMARK  99  PROTEIN
REMARK  99  GASTEIGER
REMARK  99
REMARK  99

$$$$
CHEMBL4458208
  SciTegic05292516403D

 36 38  0  0  0  0            999 V2000
   14.3093  -24.8184    0.3278 C   0  0
   14.3598  -24.5285    1.6672 C   0  0
   15.5747  -24.0944    2.1351 C   0  0
   16.6847  -23.9473    1.3995 N   0  0
   16.5511  -24.2699    0.1152 C   0  0
   15.4067  -24.6971   -0.4506 N   0  0
   13.1673  -25.3062   -0.3121 N   0  0
   11.8116  -25.4519    0.0154 C   0  0
   11.1278  -24.6447    0.9364 C   0  0
    9.7626  -24.8517    1.2367 C   0  0
    9.0453  -25.8834    0.6298 C   0  0
   17.9744  -24.1097   -0.9506 S   0  0
   19.3087  -24.1957    0.2939 C   0  0
   20.6877  -24.2381   -0.3303 C   0  0
   20.8072  -23.6650   -1.5506 O   0  0
   21.6643  -24.6980    0.2494 O   0  0
   15.7790  -23.7006    3.7939 Cl  0  0
   11.0713  -26.4888   -0.5619 C   0  0
    9.7125  -26.7037   -0.2625 C   0  0
    9.1640  -27.8503   -1.0592 C   0  0
   10.4530  -28.5673   -1.4777 C   0  0
   11.5421  -27.4924   -1.5775 C   0  0
    7.3789  -26.1022    0.9927 Cl  0  0
   13.5210  -24.6632    2.3321 H   0  0
   13.3994  -25.5629   -1.2667 H   0  0
   11.6266  -23.7999    1.4035 H   0  0
    9.2526  -24.1914    1.9384 H   0  0
   19.2647  -23.3205    0.9487 H   0  0
   19.1815  -25.1109    0.8807 H   0  0
   19.9391  -23.3763   -1.9007 H   0  0
    8.5236  -28.5115   -0.4690 H   0  0
    8.6180  -27.4754   -1.9310 H   0  0
   10.7320  -29.2892   -0.6974 H   0  0
   10.3347  -29.1302   -2.4088 H   0  0
   12.5250  -27.9074   -1.3373 H   0  0
   11.5587  -27.0370   -2.5730 H   0  0
  1  2  2  0
  1  7  1  0
  2  3  1  0
  2 24  1  0
  3  4  2  0
  3 17  1  0
  4  5  1  0
  5  6  2  0
  5 12  1  0
  6  1  1  0
  7  8  1  0
  7 25  1  0
  8  9  2  0
  9 10  1  0
  9 26  1  0
 10 11  2  0
 10 27  1  0
 11 19  1  0
 11 23  1  0
 12 13  1  0
 13 14  1  0
 13 28  1  0
 13 29  1  0
 14 15  1  0
 14 16  2  0
 15 30  1  0
 18  8  1  0
 18 19  2  0
 19 20  1  0
 20 21  1  0
 20 31  1  0
 20 32  1  0
 21 22  1  0
 21 33  1  0
 21 34  1  0
 22 18  1  0
 22 35  1  0
 22 36  1  0
M  END
> <Name>
CHEMBL4458208

> <Clean Energy>
30.228201

> <chembl_id>
CHEMBL4458208

> <chembl_pref_name>
None

> <efficacy>
0.11

> <Forcefield>
MMFF

> <ForcefieldBase>
MMFF

> <ForcefieldFFML>
<?xml version="1.0" encoding="UTF-8"?>
<!DOCTYPE ffml SYSTEM "Ffml.dtd">
<ffml version="1.0">
<forcefield name="MMFF" derivedFrom="MMFF" base="MMFF">
<atomTypes>
<atomType
name="C100"
element="C"
mass="12.011"
annotation=""/>
<atomType
name="N101"
element="N"
mass="14.007"
annotation=""/>
<atomType
name="S102"
element="S"
mass="32.066"
annotation=""/>
<atomType
name="O103"
element="O"
mass="16"
annotation=""/>
<atomType
name="Cl104"
element="Cl"
mass="35.453"
annotation=""/>
<atomType
name="H105"
element="H"
mass="1.008"
annotation=""/>
</atomTypes>
<parameters>
</parameters>
</forcefield>
</ffml>

> <Initial Potential Energy>
46.05155

> <Initial RMS Gradient>
55.58012

> <Minimization Criteria>
CONJUG> Minimization exiting with gradient tolerance ( 0.0100000) satisfied.

> <CHARMm Energy>
-87.81234

> <Potential Energy>
-87.81234

> <RMS Gradient>
0.00934

> <Bond Energy>
2.93572

> <Angle Energy>
20.49662

> <STRBend>
-0.6004

> <Dihedral Energy>
3.96393

> <OOPLane>
0.16833

> <Van der Waals Energy>
35.62586

> <Electrostatic Energy>
-150.40241

> <Hydrogen Bond Energy>
0

> <Solvation Free Energy>
0

> <HasGasteigerCharges>
true

> <REMARK99>
REMARK  99  MacroMolecule created from Mol2 file
REMARK  99  CHEMBL4458208
REMARK  99  PROTEIN
REMARK  99  GASTEIGER
REMARK  99
REMARK  99

$$$$
CHEMBL4463464
  SciTegic05292516403D

 51 54  0  0  0  0            999 V2000
    9.3593   -2.6294    1.0203 C   0  0
    9.3809   -3.4608   -0.0988 C   0  0
   10.5762   -3.7071   -0.7908 C   0  0
   10.5342   -2.0213    1.4714 C   0  0
   11.7423   -2.2373    0.7879 C   0  0
   11.7434   -3.0755   -0.3266 C   0  0
   13.0588   -3.0789   -0.7457 N   0  0
   13.7740   -2.2185    0.0678 C   0  0
   13.0035   -1.7458    1.0256 N   0  0
   13.5999   -3.8663   -1.8487 C   0  0
   14.6480   -4.8535   -1.3884 C   0  0
   14.4322   -5.6731   -0.2723 C   0  0
   15.4345   -6.5317    0.1808 C   0  0
   16.6707   -6.6153   -0.4793 C   0  0
   16.8609   -5.8353   -1.6289 C   0  0
   15.8631   -4.9643   -2.0785 C   0  0
   17.7230   -7.5118    0.0272 C   0  0
   17.4296   -8.8898    0.1198 C   0  0
   18.3739   -9.8120    0.5716 C   0  0
   19.6442   -9.3816    0.9299 C   0  0
   19.9687   -8.0302    0.8398 C   0  0
   19.0161   -7.0893    0.4083 C   0  0
   19.4865   -5.6776    0.3985 C   0  0
   18.6378   -4.7162    0.8686 N   0  0
   20.6250   -5.3958    0.0391 O   0  0
   15.2318   -1.9151   -0.1041 C   0  0
   15.6347   -0.5954    0.5566 C   0  0
   17.1119   -0.3002    0.3475 C   0  0
   10.4732   -1.2191    2.5452 F   0  0
    8.4293   -2.4407    1.5508 H   0  0
    8.4543   -3.9234   -0.4381 H   0  0
   10.5847   -4.3596   -1.6577 H   0  0
   12.7865   -4.4075   -2.3409 H   0  0
   14.0071   -3.1484   -2.5700 H   0  0
   13.4933   -5.6306    0.2781 H   0  0
   15.2463   -7.1303    1.0711 H   0  0
   17.8004   -5.8916   -2.1786 H   0  0
   16.0574   -4.3602   -2.9629 H   0  0
   16.4486   -9.2589   -0.1774 H   0  0
   18.1144  -10.8652    0.6339 H   0  0
   20.3851  -10.0935    1.2792 H   0  0
   20.9705   -7.7044    1.1184 H   0  0
   17.7070   -4.9074    1.2119 H   0  0
   18.9928   -3.7698    0.9062 H   0  0
   15.8172   -2.7314    0.3349 H   0  0
   15.4784   -1.8630   -1.1706 H   0  0
   15.0399    0.2290    0.1447 H   0  0
   15.4275   -0.6321    1.6330 H   0  0
   17.3821    0.6436    0.8313 H   0  0
   17.3481   -0.2155   -0.7181 H   0  0
   17.7345   -1.0924    0.7757 H   0  0
  1  2  2  0
  1 30  1  0
  2  3  1  0
  2 31  1  0
  3  6  2  0
  3 32  1  0
  4  1  1  0
  4 29  1  0
  5  4  2  0
  5  6  1  0
  6  7  1  0
  7  8  1  0
  7 10  1  0
  8  9  2  0
  8 26  1  0
  9  5  1  0
 10 11  1  0
 10 33  1  0
 10 34  1  0
 11 12  2  0
 12 13  1  0
 12 35  1  0
 13 14  2  0
 13 36  1  0
 14 15  1  0
 14 17  1  0
 15 16  2  0
 15 37  1  0
 16 11  1  0
 16 38  1  0
 17 18  2  0
 18 19  1  0
 18 39  1  0
 19 20  2  0
 19 40  1  0
 20 21  1  0
 20 41  1  0
 21 22  2  0
 21 42  1  0
 22 17  1  0
 22 23  1  0
 23 24  1  0
 23 25  2  0
 24 43  1  0
 24 44  1  0
 26 27  1  0
 26 45  1  0
 26 46  1  0
 27 28  1  0
 27 47  1  0
 27 48  1  0
 28 49  1  0
 28 50  1  0
 28 51  1  0
M  END
> <Name>
CHEMBL4463464

> <Clean Energy>
46.834

> <chembl_id>
CHEMBL4463464

> <chembl_pref_name>
None

> <efficacy>
0.316239316

> <Forcefield>
MMFF

> <ForcefieldBase>
MMFF

> <ForcefieldFFML>
<?xml version="1.0" encoding="UTF-8"?>
<!DOCTYPE ffml SYSTEM "Ffml.dtd">
<ffml version="1.0">
<forcefield name="MMFF" derivedFrom="MMFF" base="MMFF">
<atomTypes>
<atomType
name="C100"
element="C"
mass="12.011"
annotation=""/>
<atomType
name="N101"
element="N"
mass="14.007"
annotation=""/>
<atomType
name="O102"
element="O"
mass="16"
annotation=""/>
<atomType
name="F103"
element="F"
mass="18.998"
annotation=""/>
<atomType
name="H104"
element="H"
mass="1.008"
annotation=""/>
</atomTypes>
<parameters>
</parameters>
</forcefield>
</ffml>

> <Initial Potential Energy>
246.82434

> <Initial RMS Gradient>
38.07807

> <Minimization Criteria>
CONJUG> Minimization exiting with gradient tolerance ( 0.0100000) satisfied.

> <CHARMm Energy>
75.52829

> <Potential Energy>
75.52829

> <RMS Gradient>
0.00997

> <Bond Energy>
7.03795

> <Angle Energy>
7.93651

> <STRBend>
-0.12907

> <Dihedral Energy>
6.13298

> <OOPLane>
0.0955

> <Van der Waals Energy>
53.61285

> <Electrostatic Energy>
0.84156

> <Hydrogen Bond Energy>
0

> <Solvation Free Energy>
0

> <HasGasteigerCharges>
true

> <REMARK99>
REMARK  99  MacroMolecule created from Mol2 file
REMARK  99  CHEMBL4463464
REMARK  99  PROTEIN
REMARK  99  GASTEIGER
REMARK  99
REMARK  99

$$$$
CHEMBL4102794
  SciTegic05292516403D

 67 70  0  0  0  0            999 V2000
   12.1924  -22.0570    1.3164 C   0  0
   11.6990  -21.2448    0.0627 C   0  0
   12.1844  -21.9308   -1.2705 C   0  0
   -2.1645  -20.6388    0.4547 C   0  0
   -2.5288  -21.8642   -0.0978 C   0  0
   -1.5471  -22.6922   -0.6363 C   0  0
   -0.2026  -22.2940   -0.6292 C   0  0
    0.1825  -21.0568   -0.0824 C   0  0
   -0.8203  -20.2379    0.4658 C   0  0
    1.5795  -20.6515   -0.0841 C   0  0
    2.6280  -21.2480    0.4481 N   0  0
    3.6963  -20.4652    0.0554 C   0  0
    3.2282  -19.4033   -0.6844 C   0  0
    1.8746  -19.5152   -0.7889 O   0  0
    5.0909  -20.8214    0.4402 C   0  0
    6.0601  -20.1755   -0.3996 O   0  0
    7.3728  -20.5106   -0.2053 C   0  0
    7.8736  -21.3038    0.8238 C   0  0
    9.2541  -21.5471    0.9193 C   0  0
   10.1616  -21.0275   -0.0184 C   0  0
    9.6295  -20.2305   -1.0522 C   0  0
    8.2579  -19.9750   -1.1397 C   0  0
   12.4168  -19.8534    0.2440 C   0  0
   13.7049  -19.6012   -0.2751 C   0  0
   14.3369  -18.3659   -0.0880 C   0  0
   13.6893  -17.3573    0.6183 C   0  0
   12.4486  -17.5990    1.1955 C   0  0
   11.8196  -18.8337    1.0140 C   0  0
   14.2525  -16.1327    0.8438 O   0  0
   14.5440  -15.4137   -0.3571 C   0  0  1  0  0  0
   14.2960  -13.9384   -0.0544 C   0  0
   15.9825  -15.5645   -0.8636 C   0  0
   16.9338  -15.9564   -0.2035 O   0  0
   16.1289  -15.2021   -2.1669 O   0  0
   11.3306  -23.0611   -1.8493 C   0  0
   11.9738  -23.5652    1.3317 C   0  0
   -0.4664  -18.7156    1.2159 Cl  0  0
    0.9410  -23.3812   -1.3514 Cl  0  0
   11.7562  -21.6318    2.2307 H   0  0
   13.2772  -21.9161    1.4317 H   0  0
   12.2658  -21.1757   -2.0649 H   0  0
   13.2005  -22.3220   -1.1283 H   0  0
   -2.9315  -19.9973    0.8840 H   0  0
   -3.5718  -22.1738   -0.1049 H   0  0
   -1.8296  -23.6506   -1.0665 H   0  0
    3.6849  -18.5585   -1.1786 H   0  0
    5.2459  -20.5120    1.4809 H   0  0
    5.2008  -21.9101    0.3590 H   0  0
    7.2335  -21.7396    1.5849 H   0  0
    9.5923  -22.1420    1.7618 H   0  0
   10.2892  -19.7823   -1.7938 H   0  0
    7.8802  -19.3498   -1.9449 H   0  0
   14.2518  -20.3696   -0.8150 H   0  0
   15.3477  -18.2254   -0.4655 H   0  0
   11.9597  -16.8298    1.7871 H   0  0
   10.8511  -18.9860    1.4873 H   0  0
   13.8583  -15.7247   -1.1579 H   0  0
   14.4657  -13.3100   -0.9344 H   0  0
   14.9577  -13.5886    0.7464 H   0  0
   13.2682  -13.7851    0.2920 H   0  0
   15.2870  -14.9683   -2.6056 H   0  0
   11.8515  -23.5077   -2.7035 H   0  0
   10.3699  -22.6953   -2.2224 H   0  0
   11.1345  -23.8603   -1.1349 H   0  0
   12.2572  -23.9660    2.3112 H   0  0
   12.6069  -24.0637    0.5918 H   0  0
   10.9336  -23.8444    1.1530 H   0  0
  1 36  1  0
  1 39  1  0
  1 40  1  0
  2  1  1  0
  2 23  1  0
  3  2  1  0
  3 35  1  0
  3 41  1  0
  3 42  1  0
  4  5  2  0
  4 43  1  0
  5  6  1  0
  5 44  1  0
  6  7  2  0
  6 45  1  0
  7  8  1  0
  7 38  1  0
  8  9  2  0
  8 10  1  0
  9  4  1  0
  9 37  1  0
 10 11  2  0
 11 12  1  0
 12 13  2  0
 12 15  1  0
 13 14  1  0
 13 46  1  0
 14 10  1  0
 15 16  1  0
 15 47  1  0
 15 48  1  0
 16 17  1  0
 17 18  2  0
 18 19  1  0
 18 49  1  0
 19 20  2  0
 19 50  1  0
 20  2  1  0
 20 21  1  0
 21 22  2  0
 21 51  1  0
 22 17  1  0
 22 52  1  0
 23 24  2  0
 24 25  1  0
 24 53  1  0
 25 26  2  0
 25 54  1  0
 26 27  1  0
 26 29  1  0
 27 28  2  0
 27 55  1  0
 28 23  1  0
 28 56  1  0
 29 30  1  0
 30 31  1  0
 30 32  1  0
 30 57  1  0
 31 58  1  0
 31 59  1  0
 31 60  1  0
 32 33  2  0
 32 34  1  0
 34 61  1  0
 35 62  1  0
 35 63  1  0
 35 64  1  0
 36 65  1  0
 36 66  1  0
 36 67  1  0
M  END
> <Name>
CHEMBL4102794

> <Clean Energy>
68.201599

> <chembl_id>
CHEMBL4102794

> <chembl_pref_name>
None

> <efficacy>
0.1

> <Forcefield>
MMFF

> <ForcefieldBase>
MMFF

> <ForcefieldFFML>
<?xml version="1.0" encoding="UTF-8"?>
<!DOCTYPE ffml SYSTEM "Ffml.dtd">
<ffml version="1.0">
<forcefield name="MMFF" derivedFrom="MMFF" base="MMFF">
<atomTypes>
<atomType
name="C100"
element="C"
mass="12.011"
annotation=""/>
<atomType
name="N101"
element="N"
mass="14.007"
annotation=""/>
<atomType
name="O102"
element="O"
mass="16"
annotation=""/>
<atomType
name="Cl103"
element="Cl"
mass="35.453"
annotation=""/>
<atomType
name="H104"
element="H"
mass="1.008"
annotation=""/>
</atomTypes>
<parameters>
</parameters>
</forcefield>
</ffml>

> <Initial Potential Energy>
265.63943

> <Initial RMS Gradient>
29.48619

> <Minimization Criteria>
CONJUG> Minimization exiting with gradient tolerance ( 0.0100000) satisfied.

> <CHARMm Energy>
128.67774

> <Potential Energy>
128.67774

> <RMS Gradient>
0.00937

> <Bond Energy>
12.95105

> <Angle Energy>
20.10926

> <STRBend>
0.93753

> <Dihedral Energy>
7.60562

> <OOPLane>
0.11522

> <Van der Waals Energy>
76.54618

> <Electrostatic Energy>
10.41287

> <Hydrogen Bond Energy>
0

> <Solvation Free Energy>
0

> <HasGasteigerCharges>
true

> <REMARK99>
REMARK  99  MacroMolecule created from Mol2 file
REMARK  99  CHEMBL4102794
REMARK  99  PROTEIN
REMARK  99  GASTEIGER
REMARK  99
REMARK  99

$$$$
CHEMBL4088048
  SciTegic05292516403D

 46 49  0  0  0  0            999 V2000
   40.6201  -15.5594    0.0000 N   0  0
   40.5860  -16.9138   -0.0009 C   0  0
   39.4354  -14.8880    0.0005 C   0  0
   38.9169  -17.4552   -0.0013 S   0  0
   38.2990  -15.8523    0.0000 C   0  0
   41.5440  -17.6641   -0.0014 O   0  0
   39.3259  -13.6720    0.0013 O   0  0
   37.0421  -15.3839    0.0006 C   0  0
   35.7078  -16.0210    0.0002 C   0  0
   33.0501  -17.0237   -0.0001 C   0  0
   29.4167  -17.6511    0.0000 C   0  0
   35.4568  -17.3945    0.0009 C   0  0
   34.5940  -15.1617   -0.0006 C   0  0
   30.6799  -16.7793   -0.0003 C   0  0
   34.1439  -17.8879    0.0007 C   0  0
   33.2818  -15.6526   -0.0007 C   0  0
   31.8267  -17.6360   -0.0001 O   0  0
   28.1393  -16.9314   -0.0002 N   0  0
   28.1132  -15.4742   -0.0005 C   0  0
   26.9475  -17.5886   -0.0002 C   0  0
   25.7413  -17.0650   -0.0004 N   0  0
   26.8653  -18.9621    0.0001 N   0  0
   25.5449  -19.3291    0.0000 C   0  0
   24.8633  -18.1202   -0.0003 C   0  0
   23.4611  -18.1235   -0.0004 C   0  0
   22.7928  -19.3547   -0.0003 C   0  0
   23.5055  -20.5569    0.0000 C   0  0
   24.9061  -20.5717    0.0002 C   0  0
   41.5018  -15.0698    0.0002 H   0  0
   36.9631  -14.2925    0.0014 H   0  0
   29.4632  -18.3106   -0.8770 H   0  0
   29.4632  -18.3100    0.8775 H   0  0
   36.2549  -18.1259    0.0017 H   0  0
   34.7293  -14.0808   -0.0011 H   0  0
   30.6910  -16.1524   -0.8997 H   0  0
   30.6911  -16.1518    0.8986 H   0  0
   33.9770  -18.9629    0.0012 H   0  0
   32.4714  -14.9314   -0.0013 H   0  0
   27.1010  -15.0544   -0.0005 H   0  0
   28.6160  -15.0838   -0.8914 H   0  0
   28.6161  -15.0834    0.8902 H   0  0
   27.6486  -19.5932    0.0003 H   0  0
   22.9185  -17.1853   -0.0006 H   0  0
   21.7056  -19.3720   -0.0004 H   0  0
   22.9592  -21.4989    0.0001 H   0  0
   25.4615  -21.5028    0.0004 H   0  0
  1 29  1  0
  2  1  1  0
  3  1  1  0
  4  2  1  0
  5  3  1  0
  5  4  1  0
  6  2  2  0
  7  3  2  0
  8  5  2  0
  8 30  1  0
  9  8  1  0
 10 15  2  0
 10 16  1  0
 11 14  1  0
 11 18  1  0
 11 31  1  0
 11 32  1  0
 12  9  2  0
 12 33  1  0
 13  9  1  0
 13 34  1  0
 14 17  1  0
 14 35  1  0
 14 36  1  0
 15 12  1  0
 15 37  1  0
 16 13  2  0
 16 38  1  0
 17 10  1  0
 18 19  1  0
 18 20  1  0
 19 39  1  0
 19 40  1  0
 19 41  1  0
 20 21  2  0
 21 24  1  0
 22 20  1  0
 22 42  1  0
 23 22  1  0
 23 24  2  0
 24 25  1  0
 25 26  2  0
 25 43  1  0
 26 27  1  0
 26 44  1  0
 27 28  2  0
 27 45  1  0
 28 23  1  0
 28 46  1  0
M  END
> <Name>
CHEMBL4088048

> <Clean Energy>
43.8689

> <chembl_id>
CHEMBL4088048

> <chembl_pref_name>
None

> <efficacy>
0.113960114

> <Forcefield>
MMFF

> <ForcefieldBase>
MMFF

> <ForcefieldFFML>
<?xml version="1.0" encoding="UTF-8"?>
<!DOCTYPE ffml SYSTEM "Ffml.dtd">
<ffml version="1.0">
<forcefield name="MMFF" derivedFrom="MMFF" base="MMFF">
<atomTypes>
<atomType
name="N100"
element="N"
mass="14.007"
annotation=""/>
<atomType
name="C101"
element="C"
mass="12.011"
annotation=""/>
<atomType
name="S102"
element="S"
mass="32.066"
annotation=""/>
<atomType
name="O103"
element="O"
mass="16"
annotation=""/>
<atomType
name="H104"
element="H"
mass="1.008"
annotation=""/>
</atomTypes>
<parameters>
</parameters>
</forcefield>
</ffml>

> <Initial Potential Energy>
39.09438

> <Initial RMS Gradient>
31.99977

> <Minimization Criteria>
CONJUG> Minimization exiting with gradient tolerance ( 0.0100000) satisfied.

> <CHARMm Energy>
-21.58284

> <Potential Energy>
-21.58284

> <RMS Gradient>
0.00922

> <Bond Energy>
4.2017

> <Angle Energy>
22.53113

> <STRBend>
-0.05021

> <Dihedral Energy>
2.32743

> <OOPLane>
0

> <Van der Waals Energy>
47.49403

> <Electrostatic Energy>
-98.08691

> <Hydrogen Bond Energy>
0

> <Solvation Free Energy>
0

> <HasGasteigerCharges>
true

> <REMARK99>
REMARK  99  MacroMolecule created from Mol2 file
REMARK  99  CHEMBL4088048
REMARK  99  PROTEIN
REMARK  99  GASTEIGER
REMARK  99
REMARK  99

$$$$
CHEMBL4546798
  SciTegic05292516403D

 54 56  0  0  0  0            999 V2000
   10.9713  -11.1803    1.6129 C   0  0
   11.5530  -10.0321    0.7867 C   0  0  2  0  0  0
   13.0882  -10.1169    0.7133 C   0  0
   13.5670  -11.3388   -0.0826 C   0  0
   15.0951  -11.4009   -0.1366 C   0  0
   15.5720  -12.6389   -0.8974 C   0  0
   17.0978  -12.7180   -0.9411 C   0  0
   17.5659  -13.9552   -1.6911 C   0  0
   11.5710  -11.7683    2.5033 O   0  0
    9.7080  -11.5302    1.2674 O   0  0
   11.0996   -8.4317    1.5543 S   0  0
    8.3294   -7.2889    2.0288 S   0  0
    9.3794   -8.3917    1.2547 C   0  0
    8.8183   -9.2519    0.4325 N   0  0
    7.4447   -9.0730    0.4493 C   0  0
    6.9815   -8.0524    1.2759 C   0  0
    6.5144   -9.8449   -0.2621 C   0  0
    5.1468   -9.5808   -0.1209 C   0  0
    4.6743   -8.5562    0.7008 C   0  0
    5.6097   -7.7785    1.4060 C   0  0
    3.3377   -8.2461    0.8366 N   0  0
    2.2411   -8.8497    0.1096 C   0  0
    1.3477   -7.7559   -0.4239 C   0  0
    1.8837   -6.7512   -1.2488 C   0  0
    1.0561   -5.7560   -1.7625 C   0  0
   -0.3061   -5.7485   -1.4711 C   0  0
   -0.8455   -6.7450   -0.6617 C   0  0
   -0.0263   -7.7460   -0.1372 C   0  0
   -2.5308   -6.7468   -0.3117 Cl  0  0
    1.7067   -4.5269   -2.7769 Cl  0  0
   11.1643  -10.0840   -0.2370 H   0  0
   13.4858   -9.2171    0.2250 H   0  0
   13.5210  -10.1543    1.7218 H   0  0
   13.1870  -12.2598    0.3730 H   0  0
   13.1646  -11.2933   -1.1016 H   0  0
   15.4840  -10.4968   -0.6203 H   0  0
   15.4977  -11.4210    0.8836 H   0  0
   15.1733  -13.5400   -0.4155 H   0  0
   15.1752  -12.6170   -1.9195 H   0  0
   17.5045  -11.8246   -1.4294 H   0  0
   17.4997  -12.7422    0.0787 H   0  0
   18.6594  -13.9968   -1.7112 H   0  0
   17.2073  -13.9453   -2.7255 H   0  0
   17.1999  -14.8675   -1.2093 H   0  0
    9.2963  -10.8756    0.6548 H   0  0
    6.8500  -10.6513   -0.9065 H   0  0
    4.4670  -10.2196   -0.6762 H   0  0
    5.2808   -6.9714    2.0541 H   0  0
    3.0825   -7.5274    1.5053 H   0  0
    2.5518   -9.4528   -0.7484 H   0  0
    1.6894   -9.5096    0.7872 H   0  0
    2.9495   -6.7544   -1.4789 H   0  0
   -0.9454   -4.9716   -1.8791 H   0  0
   -0.4522   -8.5223    0.4943 H   0  0
  1  2  1  0
  1  9  2  0
  1 10  1  0
  2  3  1  0
  2 11  1  0
  2 31  1  0
  3  4  1  0
  3 32  1  0
  3 33  1  0
  4  5  1  0
  4 34  1  0
  4 35  1  0
  5  6  1  0
  5 36  1  0
  5 37  1  0
  6  7  1  0
  6 38  1  0
  6 39  1  0
  7  8  1  0
  7 40  1  0
  7 41  1  0
  8 42  1  0
  8 43  1  0
  8 44  1  0
 10 45  1  0
 11 13  1  0
 12 13  1  0
 12 16  1  0
 13 14  2  0
 14 15  1  0
 15 16  1  0
 15 17  2  0
 16 20  2  0
 17 18  1  0
 17 46  1  0
 18 19  2  0
 18 47  1  0
 19 20  1  0
 19 21  1  0
 20 48  1  0
 21 22  1  0
 21 49  1  0
 22 23  1  0
 22 50  1  0
 22 51  1  0
 23 24  1  0
 23 28  2  0
 24 25  2  0
 24 52  1  0
 25 26  1  0
 25 30  1  0
 26 27  2  0
 26 53  1  0
 27 28  1  0
 27 29  1  0
 28 54  1  0
M  END
> <Name>
CHEMBL4546798

> <Clean Energy>
29.8496

> <chembl_id>
CHEMBL4546798

> <chembl_pref_name>
None

> <efficacy>
0.332383666

> <Forcefield>
MMFF

> <ForcefieldBase>
MMFF

> <ForcefieldFFML>
<?xml version="1.0" encoding="UTF-8"?>
<!DOCTYPE ffml SYSTEM "Ffml.dtd">
<ffml version="1.0">
<forcefield name="MMFF" derivedFrom="MMFF" base="MMFF">
<atomTypes>
<atomType
name="C100"
element="C"
mass="12.011"
annotation=""/>
<atomType
name="O101"
element="O"
mass="16"
annotation=""/>
<atomType
name="S102"
element="S"
mass="32.066"
annotation=""/>
<atomType
name="N103"
element="N"
mass="14.007"
annotation=""/>
<atomType
name="Cl104"
element="Cl"
mass="35.453"
annotation=""/>
<atomType
name="H105"
element="H"
mass="1.008"
annotation=""/>
</atomTypes>
<parameters>
</parameters>
</forcefield>
</ffml>

> <Initial Potential Energy>
89.01741

> <Initial RMS Gradient>
27.79392

> <Minimization Criteria>
STEEPD> Minimization exiting with gradient tolerance ( 3.0000000) satisfied.

> <CHARMm Energy>
-5.28325

> <Potential Energy>
-5.28325

> <RMS Gradient>
0.11938

> <Bond Energy>
5.05266

> <Angle Energy>
14.04813

> <STRBend>
-1.29323

> <Dihedral Energy>
-3.68378

> <OOPLane>
0.03186

> <Van der Waals Energy>
48.36553

> <Electrostatic Energy>
-67.80441

> <Hydrogen Bond Energy>
0

> <Solvation Free Energy>
0

> <HasGasteigerCharges>
true

> <REMARK99>
REMARK  99  MacroMolecule created from Mol2 file
REMARK  99  CHEMBL4546798
REMARK  99  PROTEIN
REMARK  99  GASTEIGER
REMARK  99
REMARK  99

$$$$
CHEMBL2331559
  SciTegic05292516403D

 51 53  0  0  0  0            999 V2000
   35.9348  -14.5115    0.1399 C   0  0
   34.5552  -13.9822    0.0298 C   0  0
   33.5451  -14.7255   -0.5877 C   0  0
   32.2520  -14.1948   -0.6957 C   0  0
   31.9474  -12.9689   -0.1100 C   0  0
   32.9383  -12.2582    0.5630 C   0  0
   34.2455  -12.7487    0.6198 C   0  0
   36.1358  -15.6523    0.5347 O   0  0
   36.9309  -13.6282   -0.2240 N   0  0
   38.3281  -14.0061   -0.2091 C   0  0
   39.2186  -12.8098    0.0654 C   0  0
   32.0950   -9.7210    0.3203 S   0  0
   32.6389  -11.0372    1.2209 N   0  0
   30.3289   -9.8882    0.3222 C   0  0
   29.6172   -9.7650   -0.8737 C   0  0
   28.2188   -9.8398   -0.8611 C   0  0
   27.5329  -10.0298    0.3410 C   0  0
   28.2626  -10.1900    1.5251 C   0  0
   29.6575  -10.1116    1.5252 C   0  0
   33.8118  -15.9803   -1.0962 O   0  0
   32.9773  -17.2168    0.8140 C   0  0
   33.0235  -16.9695   -0.5558 C   0  0
   32.2022  -17.7041   -1.4041 C   0  0
   31.3085  -18.6050   -0.8409 C   0  0
   31.2823  -18.7446    0.5411 C   0  0
   32.0973  -18.0694    1.3860 N   0  0
   30.2262  -19.4914   -1.8351 Cl  0  0
   32.5775   -9.8489   -1.0379 O   0  0
   32.3986   -8.5579    1.1245 O   0  0
   26.1726  -10.0789    0.4938 O   0  0
   25.3771   -9.6489   -0.6074 C   0  0
   31.4668  -14.7458   -1.2074 H   0  0
   30.9256  -12.6064   -0.1619 H   0  0
   35.0171  -12.1939    1.1470 H   0  0
   36.6683  -12.7466   -0.6492 H   0  0
   38.4944  -14.7818    0.5456 H   0  0
   38.5591  -14.4344   -1.1900 H   0  0
   40.2715  -13.1078    0.0632 H   0  0
   38.9877  -12.3666    1.0398 H   0  0
   39.0797  -12.0340   -0.6949 H   0  0
   33.2538  -10.7294    1.9742 H   0  0
   30.1363   -9.5921   -1.8145 H   0  0
   27.6957   -9.7396   -1.8060 H   0  0
   27.7339  -10.3565    2.4612 H   0  0
   30.2024  -10.2083    2.4606 H   0  0
   33.6445  -16.7074    1.5046 H   0  0
   32.2408  -17.5480   -2.4770 H   0  0
   30.5840  -19.4170    1.0283 H   0  0
   24.3330   -9.6343   -0.2809 H   0  0
   25.4585  -10.3523   -1.4422 H   0  0
   25.6469   -8.6345   -0.9193 H   0  0
  1  2  1  0
  1  8  2  0
  1  9  1  0
  2  3  1  0
  2  7  2  0
  3  4  2  0
  3 20  1  0
  4  5  1  0
  4 32  1  0
  5  6  2  0
  5 33  1  0
  6  7  1  0
  6 13  1  0
  7 34  1  0
  9 10  1  0
  9 35  1  0
 10 11  1  0
 10 36  1  0
 10 37  1  0
 11 38  1  0
 11 39  1  0
 11 40  1  0
 12 13  1  0
 12 14  1  0
 12 28  2  0
 12 29  2  0
 13 41  1  0
 14 15  1  0
 14 19  2  0
 15 16  2  0
 15 42  1  0
 16 17  1  0
 16 43  1  0
 17 18  2  0
 17 30  1  0
 18 19  1  0
 18 44  1  0
 19 45  1  0
 20 22  1  0
 21 22  1  0
 21 26  2  0
 21 46  1  0
 22 23  2  0
 23 24  1  0
 23 47  1  0
 24 25  2  0
 24 27  1  0
 25 26  1  0
 25 48  1  0
 30 31  1  0
 31 49  1  0
 31 50  1  0
 31 51  1  0
M  END
> <Name>
CHEMBL2331559

> <Clean Energy>
32.744801

> <chembl_id>
CHEMBL2331559

> <chembl_pref_name>
None

> <efficacy>
0.33

> <Forcefield>
MMFF

> <ForcefieldBase>
MMFF

> <ForcefieldFFML>
<?xml version="1.0" encoding="UTF-8"?>
<!DOCTYPE ffml SYSTEM "Ffml.dtd">
<ffml version="1.0">
<forcefield name="MMFF" derivedFrom="MMFF" base="MMFF">
<atomTypes>
<atomType
name="C100"
element="C"
mass="12.011"
annotation=""/>
<atomType
name="O101"
element="O"
mass="16"
annotation=""/>
<atomType
name="N102"
element="N"
mass="14.007"
annotation=""/>
<atomType
name="S103"
element="S"
mass="32.066"
annotation=""/>
<atomType
name="Cl104"
element="Cl"
mass="35.453"
annotation=""/>
<atomType
name="H105"
element="H"
mass="1.008"
annotation=""/>
</atomTypes>
<parameters>
</parameters>
</forcefield>
</ffml>

> <Initial Potential Energy>
548.71647

> <Initial RMS Gradient>
197.41778

> <Minimization Criteria>
CONJUG> Minimization exiting with gradient tolerance ( 0.0100000) satisfied.

> <CHARMm Energy>
25.29247

> <Potential Energy>
25.29247

> <RMS Gradient>
0.00955

> <Bond Energy>
3.96928

> <Angle Energy>
16.49401

> <STRBend>
0.97905

> <Dihedral Energy>
13.64515

> <OOPLane>
0.13844

> <Van der Waals Energy>
59.45802

> <Electrostatic Energy>
-69.39148

> <Hydrogen Bond Energy>
0

> <Solvation Free Energy>
0

> <HasGasteigerCharges>
true

> <REMARK99>
REMARK  99  MacroMolecule created from Mol2 file
REMARK  99  CHEMBL2331559
REMARK  99  PROTEIN
REMARK  99  GASTEIGER
REMARK  99
REMARK  99

$$$$
CHEMBL2338481
  SciTegic05292516403D

 41 43  0  0  0  0            999 V2000
   23.3455  -11.9672    0.7909 C   0  0
   22.5317  -12.5646   -0.1817 C   0  0
   21.7498  -11.6991   -0.9586 C   0  0
   21.7751  -10.2889   -0.7650 C   0  0
   22.6066   -9.6878    0.1904 C   0  0
   23.3675  -10.5577    0.9852 C   0  0
   21.9120   -7.0316   -0.4283 S   0  0
   22.6556   -8.2597    0.4877 N   0  0
   20.1913   -7.1451    0.0062 C   0  0
   19.2561   -6.3475   -0.6621 C   0  0
   17.8897   -6.5510   -0.4285 C   0  0
   17.4630   -7.5255    0.4717 C   0  0
   18.3896   -8.2998    1.1612 C   0  0
   19.7530   -8.1026    0.9397 C   0  0
   22.6948  -13.9002   -0.5370 O   0  0
   20.9500  -14.7784    0.9795 C   0  0
   21.9129  -14.9161   -0.0086 C   0  0
   22.1286  -16.2257   -0.5182 C   0  0
   21.3845  -17.3227   -0.0356 C   0  0
   20.4445  -17.0486    0.9544 C   0  0
   20.2133  -15.8137    1.4739 N   0  0
   21.4827  -18.7578   -0.4667 C   0  0
   22.0421   -7.4399   -1.8104 O   0  0
   22.4281   -5.7857    0.0923 O   0  0
   15.7840   -7.7961    0.7202 Cl  0  0
   19.6822   -5.1010   -1.7817 Cl  0  0
   20.7403  -12.3190   -2.2185 Cl  0  0
   24.3885  -12.9289    1.7780 Cl  0  0
   22.4652  -19.1669   -1.3291 N   0  0
   20.6981  -19.6048   -0.0433 O   0  0
   21.1443   -9.6825   -1.4115 H   0  0
   24.0125  -10.1477    1.7612 H   0  0
   23.4016   -7.8794    1.0766 H   0  0
   17.1520   -5.9581   -0.9612 H   0  0
   18.0605   -9.0719    1.8550 H   0  0
   20.4431   -8.7390    1.4873 H   0  0
   20.7199  -13.8199    1.4326 H   0  0
   22.8727  -16.3536   -1.2970 H   0  0
   19.8273  -17.8449    1.3777 H   0  0
   23.1602  -18.5619   -1.7394 H   0  0
   22.4823  -20.1540   -1.5693 H   0  0
  1  2  1  0
  1  6  2  0
  1 28  1  0
  2  3  2  0
  2 15  1  0
  3  4  1  0
  3 27  1  0
  4  5  2  0
  4 31  1  0
  5  6  1  0
  5  8  1  0
  6 32  1  0
  7  8  1  0
  7  9  1  0
  7 23  2  0
  7 24  2  0
  8 33  1  0
  9 10  1  0
  9 14  2  0
 10 11  2  0
 10 26  1  0
 11 12  1  0
 11 34  1  0
 12 13  2  0
 12 25  1  0
 13 14  1  0
 13 35  1  0
 14 36  1  0
 15 17  1  0
 16 17  1  0
 16 21  2  0
 16 37  1  0
 17 18  2  0
 18 19  1  0
 18 38  1  0
 19 20  2  0
 19 22  1  0
 20 21  1  0
 20 39  1  0
 22 29  1  0
 22 30  2  0
 29 40  1  0
 29 41  1  0
M  END
> <Name>
CHEMBL2338481

> <Clean Energy>
48.368698

> <chembl_id>
CHEMBL2338481

> <chembl_pref_name>
None

> <efficacy>
0.2

> <Forcefield>
MMFF

> <ForcefieldBase>
MMFF

> <ForcefieldFFML>
<?xml version="1.0" encoding="UTF-8"?>
<!DOCTYPE ffml SYSTEM "Ffml.dtd">
<ffml version="1.0">
<forcefield name="MMFF" derivedFrom="MMFF" base="MMFF">
<atomTypes>
<atomType
name="C100"
element="C"
mass="12.011"
annotation=""/>
<atomType
name="S101"
element="S"
mass="32.066"
annotation=""/>
<atomType
name="N102"
element="N"
mass="14.007"
annotation=""/>
<atomType
name="O103"
element="O"
mass="16"
annotation=""/>
<atomType
name="Cl104"
element="Cl"
mass="35.453"
annotation=""/>
<atomType
name="H105"
element="H"
mass="1.008"
annotation=""/>
</atomTypes>
<parameters>
</parameters>
</forcefield>
</ffml>

> <Initial Potential Energy>
223.00756

> <Initial RMS Gradient>
46.69679

> <Minimization Criteria>
STEEPD> Minimization exiting with gradient tolerance ( 3.0000000) satisfied.

> <CHARMm Energy>
-2.61478

> <Potential Energy>
-2.61478

> <RMS Gradient>
0.02745

> <Bond Energy>
7.76936

> <Angle Energy>
27.62534

> <STRBend>
3.10346

> <Dihedral Energy>
6.10614

> <OOPLane>
0.50415

> <Van der Waals Energy>
52.32994

> <Electrostatic Energy>
-100.05317

> <Hydrogen Bond Energy>
0

> <Solvation Free Energy>
0

> <HasGasteigerCharges>
true

> <REMARK99>
REMARK  99  MacroMolecule created from Mol2 file
REMARK  99  CHEMBL2338481
REMARK  99  PROTEIN
REMARK  99  GASTEIGER
REMARK  99
REMARK  99

$$$$
CHEMBL4555317
  SciTegic05292516403D

 58 61  0  0  0  0            999 V2000
   29.6065   -8.9545    0.0673 C   0  0
   29.7473  -10.0021   -0.8465 C   0  0
   30.8535  -10.8569   -0.7665 C   0  0
   30.5803   -8.7535    1.0419 C   0  0
   31.6732   -9.6256    1.1182 C   0  0
   31.8340  -10.6900    0.2172 C   0  0
   28.4313   -8.0487    0.0111 C   0  0
   28.5620   -6.8395    0.1469 O   0  0
   27.2247   -8.6845   -0.1768 N   0  0
   25.9910   -7.9456   -0.3373 C   0  0
   24.7996   -8.8665   -0.4752 C   0  0
   23.5875   -8.5293    0.1505 C   0  0
   22.4711   -9.3495   -0.0011 C   0  0
   22.5404  -10.5123   -0.7594 C   0  0
   23.7278  -10.8513   -1.3988 C   0  0
   24.8467  -10.0257   -1.2704 C   0  0
   21.2692   -9.0411    0.5699 O   0  0
   32.9079  -11.5424    0.3818 N   0  0
   33.1666  -12.7607   -0.3723 C   0  0
   32.1289  -13.8352   -0.1285 C   0  0
   31.6410  -14.0992    1.1577 C   0  0
   30.6393  -15.0523    1.3571 C   0  0
   30.1077  -15.7749    0.2793 C   0  0
   30.6408  -15.5536   -0.9983 C   0  0
   31.6448  -14.6009   -1.1989 C   0  0
   28.9555  -16.6639    0.4765 C   0  0
   27.7024  -16.0798    0.7624 C   0  0
   26.5530  -16.8562    0.9326 C   0  0
   26.6299  -18.2386    0.8224 C   0  0
   27.8557  -18.8405    0.5427 C   0  0
   29.0120  -18.0629    0.3675 C   0  0
   30.2762  -18.7848    0.0912 C   0  0
   31.2393  -18.7984    0.8348 O   0  0
   30.2137  -19.4588   -1.0821 O   0  0
   29.0169  -10.1538   -1.6361 H   0  0
   30.9322  -11.6574   -1.4959 H   0  0
   30.4849   -7.9377    1.7537 H   0  0
   32.4076   -9.4679    1.9049 H   0  0
   27.1926   -9.6950   -0.1211 H   0  0
   25.8824   -7.2924    0.5362 H   0  0
   26.0769   -7.3124   -1.2274 H   0  0
   23.5138   -7.6197    0.7417 H   0  0
   21.6509  -11.1245   -0.8715 H   0  0
   23.7838  -11.7568   -1.9993 H   0  0
   25.7590  -10.3059   -1.7951 H   0  0
   21.3385   -8.1851    1.0227 H   0  0
   33.6418  -11.2487    1.0166 H   0  0
   33.2399  -12.5199   -1.4397 H   0  0
   34.1425  -13.1615   -0.0734 H   0  0
   32.0127  -13.5343    2.0099 H   0  0
   30.2546  -15.2094    2.3630 H   0  0
   30.2510  -16.0941   -1.8573 H   0  0
   32.0287  -14.4429   -2.2048 H   0  0
   27.6190  -14.9965    0.8503 H   0  0
   25.6030  -16.3761    1.1561 H   0  0
   25.7417  -18.8523    0.9653 H   0  0
   27.9095  -19.9243    0.4820 H   0  0
   29.4153  -19.2307   -1.5998 H   0  0
  1  2  2  0
  1  7  1  0
  2  3  1  0
  2 35  1  0
  3  6  2  0
  3 36  1  0
  4  1  1  0
  4 37  1  0
  5  4  2  0
  5  6  1  0
  5 38  1  0
  6 18  1  0
  7  8  2  0
  7  9  1  0
  9 10  1  0
  9 39  1  0
 10 11  1  0
 10 40  1  0
 10 41  1  0
 11 12  2  0
 12 13  1  0
 12 42  1  0
 13 14  2  0
 13 17  1  0
 14 15  1  0
 14 43  1  0
 15 16  2  0
 15 44  1  0
 16 11  1  0
 16 45  1  0
 17 46  1  0
 18 19  1  0
 18 47  1  0
 19 20  1  0
 19 48  1  0
 19 49  1  0
 20 21  2  0
 21 22  1  0
 21 50  1  0
 22 23  2  0
 22 51  1  0
 23 24  1  0
 23 26  1  0
 24 25  2  0
 24 52  1  0
 25 20  1  0
 25 53  1  0
 26 27  2  0
 27 28  1  0
 27 54  1  0
 28 29  2  0
 28 55  1  0
 29 30  1  0
 29 56  1  0
 30 31  2  0
 30 57  1  0
 31 26  1  0
 31 32  1  0
 32 33  2  0
 32 34  1  0
 34 58  1  0
M  END
> <Name>
CHEMBL4555317

> <Clean Energy>
32.019501

> <chembl_id>
CHEMBL4555317

> <chembl_pref_name>
None

> <efficacy>
0.42

> <Forcefield>
MMFF

> <ForcefieldBase>
MMFF

> <ForcefieldFFML>
<?xml version="1.0" encoding="UTF-8"?>
<!DOCTYPE ffml SYSTEM "Ffml.dtd">
<ffml version="1.0">
<forcefield name="MMFF" derivedFrom="MMFF" base="MMFF">
<atomTypes>
<atomType
name="C100"
element="C"
mass="12.011"
annotation=""/>
<atomType
name="O101"
element="O"
mass="16"
annotation=""/>
<atomType
name="N102"
element="N"
mass="14.007"
annotation=""/>
<atomType
name="H103"
element="H"
mass="1.008"
annotation=""/>
</atomTypes>
<parameters>
</parameters>
</forcefield>
</ffml>

> <Initial Potential Energy>
1769.54986

> <Initial RMS Gradient>
1256.57037

> <Minimization Criteria>
CONJUG> Minimization exiting with gradient tolerance ( 0.0100000) satisfied.

> <CHARMm Energy>
48.11561

> <Potential Energy>
48.11561

> <RMS Gradient>
0.00987

> <Bond Energy>
7.73842

> <Angle Energy>
13.97183

> <STRBend>
-0.42411

> <Dihedral Energy>
21.88159

> <OOPLane>
0.21521

> <Van der Waals Energy>
72.28244

> <Electrostatic Energy>
-67.54977

> <Hydrogen Bond Energy>
0

> <Solvation Free Energy>
0

> <HasGasteigerCharges>
true

> <REMARK99>
REMARK  99  MacroMolecule created from Mol2 file
REMARK  99  CHEMBL4555317
REMARK  99  PROTEIN
REMARK  99  GASTEIGER
REMARK  99
REMARK  99

$$$$
CHEMBL4527674
  SciTegic05292516403D

 51 54  0  0  0  0            999 V2000
   18.5818   -2.8104    1.0848 C   0  0
   18.6422   -3.6039   -0.0600 C   0  0
   19.8498   -3.7794   -0.7551 C   0  0
   19.7365   -2.1746    1.5455 C   0  0
   20.9571   -2.3048    0.8638 C   0  0
   20.9909   -3.1110   -0.2748 C   0  0
   22.3053   -3.0503   -0.6942 N   0  0
   22.9818   -2.1705    0.1296 C   0  0
   22.1988   -1.7652    1.1072 N   0  0
   22.8831   -3.8042   -1.8007 C   0  0
   23.9152   -4.8039   -1.3307 C   0  0
   23.6510   -5.6724   -0.2627 C   0  0
   24.6231   -6.5717    0.1783 C   0  0
   25.8792   -6.6449   -0.4442 C   0  0
   26.1269   -5.7995   -1.5349 C   0  0
   25.1576   -4.8911   -1.9738 C   0  0
   26.8875   -7.6085    0.0264 C   0  0
   26.5540   -8.9803   -0.0181 C   0  0
   27.4537   -9.9684    0.3813 C   0  0
   28.7191   -9.6113    0.8261 C   0  0
   29.0821   -8.2673    0.8731 C   0  0
   28.1754   -7.2611    0.4909 C   0  0
   28.6903   -5.8710    0.6186 C   0  0
   27.8471   -4.9141    1.1060 N   0  0
   29.8579   -5.6052    0.3515 O   0  0
   24.4150   -1.7699   -0.0442 C   0  0
   24.6302   -0.2858    0.2613 C   0  0
   26.0724    0.1287    0.0137 C   0  0
   19.7273   -1.1813    2.9352 Cl  0  0
   17.6388   -2.6837    1.6122 H   0  0
   17.7356   -4.0934   -0.4168 H   0  0
   19.8860   -4.4079   -1.6389 H   0  0
   22.0863   -4.3306   -2.3345 H   0  0
   23.3118   -3.0691   -2.4916 H   0  0
   22.6921   -5.6471    0.2533 H   0  0
   24.3916   -7.2196    1.0231 H   0  0
   27.0847   -5.8418   -2.0528 H   0  0
   25.3925   -4.2456   -2.8181 H   0  0
   25.5760   -9.2903   -0.3857 H   0  0
   27.1642  -11.0143    0.3342 H   0  0
   29.4266  -10.3741    1.1363 H   0  0
   30.0800   -7.9987    1.2194 H   0  0
   26.8899   -5.0911    1.3764 H   0  0
   28.2324   -3.9874    1.2339 H   0  0
   25.0344   -2.3808    0.6235 H   0  0
   24.7512   -1.9620   -1.0678 H   0  0
   23.9689    0.3257   -0.3647 H   0  0
   24.3691   -0.0710    1.3045 H   0  0
   26.2055    1.1918    0.2386 H   0  0
   26.3522   -0.0334   -1.0324 H   0  0
   26.7599   -0.4424    0.6458 H   0  0
  1  2  2  0
  1 30  1  0
  2  3  1  0
  2 31  1  0
  3  6  2  0
  3 32  1  0
  4  1  1  0
  4 29  1  0
  5  4  2  0
  5  6  1  0
  6  7  1  0
  7  8  1  0
  7 10  1  0
  8  9  2  0
  8 26  1  0
  9  5  1  0
 10 11  1  0
 10 33  1  0
 10 34  1  0
 11 12  2  0
 12 13  1  0
 12 35  1  0
 13 14  2  0
 13 36  1  0
 14 15  1  0
 14 17  1  0
 15 16  2  0
 15 37  1  0
 16 11  1  0
 16 38  1  0
 17 18  2  0
 18 19  1  0
 18 39  1  0
 19 20  2  0
 19 40  1  0
 20 21  1  0
 20 41  1  0
 21 22  2  0
 21 42  1  0
 22 17  1  0
 22 23  1  0
 23 24  1  0
 23 25  2  0
 24 43  1  0
 24 44  1  0
 26 27  1  0
 26 45  1  0
 26 46  1  0
 27 28  1  0
 27 47  1  0
 27 48  1  0
 28 49  1  0
 28 50  1  0
 28 51  1  0
M  END
> <Name>
CHEMBL4527674

> <Clean Energy>
46.772301

> <chembl_id>
CHEMBL4527674

> <chembl_pref_name>
None

> <efficacy>
0.200379867

> <Forcefield>
MMFF

> <ForcefieldBase>
MMFF

> <ForcefieldFFML>
<?xml version="1.0" encoding="UTF-8"?>
<!DOCTYPE ffml SYSTEM "Ffml.dtd">
<ffml version="1.0">
<forcefield name="MMFF" derivedFrom="MMFF" base="MMFF">
<atomTypes>
<atomType
name="C100"
element="C"
mass="12.011"
annotation=""/>
<atomType
name="N101"
element="N"
mass="14.007"
annotation=""/>
<atomType
name="O102"
element="O"
mass="16"
annotation=""/>
<atomType
name="Cl103"
element="Cl"
mass="35.453"
annotation=""/>
<atomType
name="H104"
element="H"
mass="1.008"
annotation=""/>
</atomTypes>
<parameters>
</parameters>
</forcefield>
</ffml>

> <Initial Potential Energy>
247.94769

> <Initial RMS Gradient>
38.33248

> <Minimization Criteria>
STEEPD> Minimization exiting with gradient tolerance ( 3.0000000) satisfied.

> <CHARMm Energy>
76.77023

> <Potential Energy>
76.77023

> <RMS Gradient>
0.14474

> <Bond Energy>
7.11891

> <Angle Energy>
9.21381

> <STRBend>
-0.18925

> <Dihedral Energy>
6.07595

> <OOPLane>
0.09131

> <Van der Waals Energy>
54.2114

> <Electrostatic Energy>
0.24812

> <Hydrogen Bond Energy>
0

> <Solvation Free Energy>
0

> <HasGasteigerCharges>
true

> <REMARK99>
REMARK  99  MacroMolecule created from Mol2 file
REMARK  99  CHEMBL4527674
REMARK  99  PROTEIN
REMARK  99  GASTEIGER
REMARK  99
REMARK  99

$$$$
CHEMBL4872298
  SciTegic05292516403D

 41 43  0  0  0  0            999 V2000
   30.5415  -16.9007   -2.1139 C   0  0
   31.8220  -16.4423   -1.7845 C   0  0
   32.0641  -15.7504   -0.5922 C   0  0
   31.0056  -15.5053    0.3006 C   0  0
   29.5103  -16.6526   -1.2021 C   0  0
   29.7127  -15.9683   -0.0056 C   0  0
   28.4601  -15.9089    0.6623 C   0  0
   27.5242  -16.5493   -0.1252 C   0  0
   28.1761  -16.9848   -1.2543 N   0  0
   33.4626  -15.3119   -0.2328 C   0  0
   34.0975  -16.3018    0.7394 C   0  0
   35.4853  -15.8714    1.1260 C   0  0
   36.0546  -16.7126    2.0222 O   0  0
   36.0703  -14.8899    0.6967 O   0  0
   26.0949  -16.7658    0.0859 C   0  0
   25.1693  -15.7633   -0.2820 C   0  0
   23.8015  -15.9820   -0.0680 C   0  0
   23.3526  -17.1740    0.4957 C   0  0
   24.2646  -18.1632    0.8579 C   0  0
   25.6375  -17.9743    0.6606 C   0  0
   25.6182  -14.4563   -0.8827 C   0  0
   26.5953  -19.0587    1.0811 C   0  0
   30.3633  -17.4331   -3.0424 H   0  0
   32.6398  -16.6346   -2.4778 H   0  0
   31.1771  -14.9696    1.2301 H   0  0
   28.2607  -15.4467    1.6203 H   0  0
   27.7329  -17.4807   -2.0143 H   0  0
   34.0728  -15.2204   -1.1405 H   0  0
   33.4268  -14.3060    0.2052 H   0  0
   33.4965  -16.3746    1.6534 H   0  0
   34.1600  -17.2951    0.2798 H   0  0
   35.4753  -17.4561    2.2791 H   0  0
   23.0716  -15.2214   -0.3384 H   0  0
   22.2881  -17.3313    0.6574 H   0  0
   23.8864  -19.0839    1.2988 H   0  0
   24.7625  -13.8331   -1.1646 H   0  0
   26.2029  -14.6298   -1.7918 H   0  0
   26.2146  -13.8890   -0.1612 H   0  0
   27.2933  -18.6832    1.8363 H   0  0
   27.1528  -19.4345    0.2173 H   0  0
   26.0654  -19.9098    1.5226 H   0  0
  1  2  2  0
  1 23  1  0
  2  3  1  0
  2 24  1  0
  3  4  2  0
  3 10  1  0
  4  6  1  0
  4 25  1  0
  5  1  1  0
  5  6  2  0
  6  7  1  0
  7  8  2  0
  7 26  1  0
  8  9  1  0
  8 15  1  0
  9  5  1  0
  9 27  1  0
 10 11  1  0
 10 28  1  0
 10 29  1  0
 11 12  1  0
 11 30  1  0
 11 31  1  0
 12 13  1  0
 12 14  2  0
 13 32  1  0
 15 16  2  0
 16 17  1  0
 16 21  1  0
 17 18  2  0
 17 33  1  0
 18 19  1  0
 18 34  1  0
 19 20  2  0
 19 35  1  0
 20 15  1  0
 20 22  1  0
 21 36  1  0
 21 37  1  0
 21 38  1  0
 22 39  1  0
 22 40  1  0
 22 41  1  0
M  END
> <Name>
CHEMBL4872298

> <Clean Energy>
27.732901

> <chembl_id>
CHEMBL4872298

> <chembl_pref_name>
None

> <efficacy>
0.0052

> <Forcefield>
MMFF

> <ForcefieldBase>
MMFF

> <ForcefieldFFML>
<?xml version="1.0" encoding="UTF-8"?>
<!DOCTYPE ffml SYSTEM "Ffml.dtd">
<ffml version="1.0">
<forcefield name="MMFF" derivedFrom="MMFF" base="MMFF">
<atomTypes>
<atomType
name="C100"
element="C"
mass="12.011"
annotation=""/>
<atomType
name="N101"
element="N"
mass="14.007"
annotation=""/>
<atomType
name="O102"
element="O"
mass="16"
annotation=""/>
<atomType
name="H103"
element="H"
mass="1.008"
annotation=""/>
</atomTypes>
<parameters>
</parameters>
</forcefield>
</ffml>

> <Initial Potential Energy>
165.37179

> <Initial RMS Gradient>
68.10283

> <Minimization Criteria>
STEEPD> Minimization exiting with gradient tolerance ( 3.0000000) satisfied.

> <CHARMm Energy>
13.11021

> <Potential Energy>
13.11021

> <RMS Gradient>
0.05085

> <Bond Energy>
4.67063

> <Angle Energy>
2.77648

> <STRBend>
-0.64542

> <Dihedral Energy>
3.49057

> <OOPLane>
0.01591

> <Van der Waals Energy>
38.48287

> <Electrostatic Energy>
-35.68084

> <Hydrogen Bond Energy>
0

> <Solvation Free Energy>
0

> <HasGasteigerCharges>
true

> <REMARK99>
REMARK  99  MacroMolecule created from Mol2 file
REMARK  99  CHEMBL4872298
REMARK  99  PROTEIN
REMARK  99  GASTEIGER
REMARK  99
REMARK  99

$$$$
CHEMBL4869870
  SciTegic05292516403D

 35 37  0  0  0  0            999 V2000
   32.6762  -27.6109   -1.2929 C   0  0
   33.9208  -26.9788   -1.1689 C   0  0
   34.0679  -25.7856   -0.4507 C   0  0
   32.9467  -25.2161    0.1808 C   0  0
   31.5740  -27.0028   -0.6812 C   0  0
   31.6819  -25.8275    0.0556 C   0  0
   30.3748  -25.5036    0.5139 C   0  0
   29.4868  -26.4487    0.0262 C   0  0
   30.2453  -27.3658   -0.6703 N   0  0
   35.4092  -25.0918   -0.3825 C   0  0
   36.3836  -25.7692    0.5804 C   0  0
   37.6952  -25.0199    0.6253 C   0  0
   38.6404  -25.6600    1.3516 O   0  0
   37.9047  -23.9454    0.0854 O   0  0
   28.0185  -26.5288    0.1333 C   0  0
   27.1959  -25.4687   -0.3096 C   0  0
   25.7996  -25.5328   -0.1921 C   0  0
   25.1888  -26.6524    0.3620 C   0  0
   25.9745  -27.7150    0.7942 C   0  0
   27.3719  -27.6581    0.6813 C   0  0
   27.8277  -24.0425   -1.0663 Cl  0  0
   28.2361  -29.0455    1.2599 Cl  0  0
   32.5733  -28.5265   -1.8662 H   0  0
   34.7821  -27.4228   -1.6662 H   0  0
   33.0370  -24.2875    0.7380 H   0  0
   30.1072  -24.6388    1.1076 H   0  0
   29.8754  -28.1829   -1.1348 H   0  0
   35.8379  -25.0551   -1.3929 H   0  0
   35.2630  -24.0435   -0.0904 H   0  0
   35.9647  -25.7936    1.5926 H   0  0
   36.5814  -26.7963    0.2536 H   0  0
   38.3413  -26.5042    1.7387 H   0  0
   25.1806  -24.7076   -0.5397 H   0  0
   24.1053  -26.6980    0.4525 H   0  0
   25.4917  -28.5907    1.2248 H   0  0
  1  2  2  0
  1 23  1  0
  2  3  1  0
  2 24  1  0
  3  4  2  0
  3 10  1  0
  4  6  1  0
  4 25  1  0
  5  1  1  0
  5  6  2  0
  6  7  1  0
  7  8  2  0
  7 26  1  0
  8  9  1  0
  8 15  1  0
  9  5  1  0
  9 27  1  0
 10 11  1  0
 10 28  1  0
 10 29  1  0
 11 12  1  0
 11 30  1  0
 11 31  1  0
 12 13  1  0
 12 14  2  0
 13 32  1  0
 15 16  2  0
 16 17  1  0
 16 21  1  0
 17 18  2  0
 17 33  1  0
 18 19  1  0
 18 34  1  0
 19 20  2  0
 19 35  1  0
 20 15  1  0
 20 22  1  0
M  END
> <Name>
CHEMBL4869870

> <Clean Energy>
20.897301

> <chembl_id>
CHEMBL4869870

> <chembl_pref_name>
None

> <efficacy>
0.1152

> <Forcefield>
MMFF

> <ForcefieldBase>
MMFF

> <ForcefieldFFML>
<?xml version="1.0" encoding="UTF-8"?>
<!DOCTYPE ffml SYSTEM "Ffml.dtd">
<ffml version="1.0">
<forcefield name="MMFF" derivedFrom="MMFF" base="MMFF">
<atomTypes>
<atomType
name="C100"
element="C"
mass="12.011"
annotation=""/>
<atomType
name="N101"
element="N"
mass="14.007"
annotation=""/>
<atomType
name="O102"
element="O"
mass="16"
annotation=""/>
<atomType
name="Cl103"
element="Cl"
mass="35.453"
annotation=""/>
<atomType
name="H104"
element="H"
mass="1.008"
annotation=""/>
</atomTypes>
<parameters>
</parameters>
</forcefield>
</ffml>

> <Initial Potential Energy>
88.07621

> <Initial RMS Gradient>
34.57997

> <Minimization Criteria>
CONJUG> Minimization exiting with gradient tolerance ( 0.0100000) satisfied.

> <CHARMm Energy>
26.2293

> <Potential Energy>
26.2293

> <RMS Gradient>
0.00917

> <Bond Energy>
5.07715

> <Angle Energy>
3.99993

> <STRBend>
-0.41172

> <Dihedral Energy>
1.83683

> <OOPLane>
0.02079

> <Van der Waals Energy>
35.69011

> <Electrostatic Energy>
-19.98378

> <Hydrogen Bond Energy>
0

> <Solvation Free Energy>
0

> <HasGasteigerCharges>
true

> <REMARK99>
REMARK  99  MacroMolecule created from Mol2 file
REMARK  99  CHEMBL4869870
REMARK  99  PROTEIN
REMARK  99  GASTEIGER
REMARK  99
REMARK  99

$$$$
CHEMBL4868676
  SciTegic05292516403D

 38 40  0  0  0  0            999 V2000
   42.2683  -10.5155   -1.9005 C   0  0
   43.5866  -10.2525   -1.4884 C   0  0
   43.8795   -9.7773   -0.2034 C   0  0
   42.8155   -9.5663    0.6972 C   0  0
   41.2333  -10.2925   -0.9829 C   0  0
   41.4785   -9.8248    0.3040 C   0  0
   40.2122   -9.7398    0.9512 C   0  0
   39.2212  -10.1814    0.0817 C   0  0
   39.8671  -10.4680   -1.1051 N   0  0
   45.3123   -9.4615    0.1951 C   0  0
   46.1504  -10.6983    0.5450 C   0  0
   47.5874  -10.3385    0.8983 C   0  0
   48.3326  -11.4222    1.2390 O   0  0
   48.0502   -9.2093    0.8807 O   0  0
   37.7999  -10.4690    0.3551 C   0  0
   36.7059  -10.0565   -0.4406 C   0  0
   35.3944  -10.4208   -0.0481 C   0  0
   35.1657  -11.1700    1.1028 C   0  0
   36.2326  -11.5749    1.8900 C   0  0
   37.5309  -11.2260    1.5178 C   0  0
   33.5585  -11.5932    1.5461 Cl  0  0
   36.8464   -9.2335   -1.6994 C   0  0
   37.5598   -9.8976   -2.6566 F   0  0
   35.6614   -8.9104   -2.2885 F   0  0
   37.4929   -8.0552   -1.4977 F   0  0
   42.0658  -10.8758   -2.9044 H   0  0
   44.3913  -10.4100   -2.2043 H   0  0
   43.0099   -9.1935    1.6996 H   0  0
   40.0496   -9.4343    1.9771 H   0  0
   39.4156  -10.8194   -1.9389 H   0  0
   45.7856   -8.9075   -0.6265 H   0  0
   45.3074   -8.7686    1.0467 H   0  0
   45.7036  -11.2141    1.4026 H   0  0
   46.1747  -11.3876   -0.3067 H   0  0
   47.8070  -12.2456    1.2106 H   0  0
   34.5388  -10.1110   -0.6494 H   0  0
   36.0585  -12.1599    2.7899 H   0  0
   38.3544  -11.5645    2.1473 H   0  0
  1  2  2  0
  1 26  1  0
  2  3  1  0
  2 27  1  0
  3  4  2  0
  3 10  1  0
  4  6  1  0
  4 28  1  0
  5  1  1  0
  5  6  2  0
  6  7  1  0
  7  8  2  0
  7 29  1  0
  8  9  1  0
  8 15  1  0
  9  5  1  0
  9 30  1  0
 10 11  1  0
 10 31  1  0
 10 32  1  0
 11 12  1  0
 11 33  1  0
 11 34  1  0
 12 13  1  0
 12 14  2  0
 13 35  1  0
 15 16  2  0
 16 17  1  0
 16 22  1  0
 17 18  2  0
 17 36  1  0
 18 19  1  0
 18 21  1  0
 19 20  2  0
 19 37  1  0
 20 15  1  0
 20 38  1  0
 22 23  1  0
 22 24  1  0
 22 25  1  0
M  END
> <Name>
CHEMBL4868676

> <Clean Energy>
38.483299

> <chembl_id>
CHEMBL4868676

> <chembl_pref_name>
None

> <efficacy>
0.1587

> <Forcefield>
MMFF

> <ForcefieldBase>
MMFF

> <ForcefieldFFML>
<?xml version="1.0" encoding="UTF-8"?>
<!DOCTYPE ffml SYSTEM "Ffml.dtd">
<ffml version="1.0">
<forcefield name="MMFF" derivedFrom="MMFF" base="MMFF">
<atomTypes>
<atomType
name="C100"
element="C"
mass="12.011"
annotation=""/>
<atomType
name="N101"
element="N"
mass="14.007"
annotation=""/>
<atomType
name="O102"
element="O"
mass="16"
annotation=""/>
<atomType
name="Cl103"
element="Cl"
mass="35.453"
annotation=""/>
<atomType
name="F104"
element="F"
mass="18.998"
annotation=""/>
<atomType
name="H105"
element="H"
mass="1.008"
annotation=""/>
</atomTypes>
<parameters>
</parameters>
</forcefield>
</ffml>

> <Initial Potential Energy>
78.14311

> <Initial RMS Gradient>
32.41294

> <Minimization Criteria>
CONJUG> Minimization exiting with gradient tolerance ( 0.0100000) satisfied.

> <CHARMm Energy>
20.75629

> <Potential Energy>
20.75629

> <RMS Gradient>
0.00899

> <Bond Energy>
6.50002

> <Angle Energy>
5.1975

> <STRBend>
-0.63983

> <Dihedral Energy>
1.86481

> <OOPLane>
0.02656

> <Van der Waals Energy>
34.79065

> <Electrostatic Energy>
-26.98343

> <Hydrogen Bond Energy>
0

> <Solvation Free Energy>
0

> <HasGasteigerCharges>
true

> <REMARK99>
REMARK  99  MacroMolecule created from Mol2 file
REMARK  99  CHEMBL4868676
REMARK  99  PROTEIN
REMARK  99  GASTEIGER
REMARK  99
REMARK  99

$$$$
CHEMBL4277928
  SciTegic05292516403D

 66 71  0  0  0  0            999 V2000
   10.1073  -20.9927   -2.6021 C   0  0
   11.4076  -20.4753   -2.3137 O   0  0
   10.0075  -21.7312    0.0986 C   0  0
    9.0031  -20.7454   -0.3689 C   0  0
    9.0355  -20.3940   -1.7259 C   0  0
    8.0854  -19.4978   -2.2337 C   0  0
    7.1148  -18.9266   -1.3948 C   0  0
    7.1178  -19.2694   -0.0328 C   0  0
    8.0675  -20.1541    0.4810 C   0  0
   12.0227  -20.7952   -1.1290 C   0  0
   11.4489  -21.3737    0.0196 C   0  0
   12.2512  -21.5468    1.1659 C   0  0
   13.6034  -21.2047    1.1596 C   0  0
   14.1677  -20.6541    0.0165 C   0  0
   13.3778  -20.4381   -1.1124 C   0  0
    9.6347  -23.0064    0.3810 C   0  0
    8.2147  -23.4008    0.2905 C   0  0
   10.5377  -24.1823    0.6315 C   0  0
    6.0678  -18.0140   -1.9949 C   0  0
    5.7039  -16.9108   -1.1186 N   0  0
    7.6289  -23.9782   -0.6995 N   0  0
    6.2733  -24.1393   -0.2734 O   0  0
    6.2114  -23.6252    0.9978 C   0  0
    7.4255  -23.1742    1.3368 N   0  0
    5.2199  -23.6109    1.7084 O   0  0
    4.5703  -15.6426    0.2908 N   0  0
    4.5330  -16.7589   -0.4104 C   0  0
    5.7864  -15.0538    0.0312 C   0  0
    6.4968  -15.8216   -0.8631 C   0  0
    3.4100  -17.7479   -0.4408 C   0  0
    2.2757  -17.3795    0.5166 C   0  0
    1.1511  -18.4019    0.4656 C   0  0
    6.2202  -13.8076    0.6416 C   0  0
    7.5576  -13.3853    0.5940 C   0  0
    7.9462  -12.1882    1.1985 C   0  0
    7.0039  -11.4025    1.8595 C   0  0
    5.6733  -11.8099    1.9181 C   0  0
    5.2848  -13.0066    1.3133 C   0  0
    9.9019  -20.7416   -3.6496 H   0  0
   10.1071  -22.0898   -2.5639 H   0  0
    8.1048  -19.2477   -3.2937 H   0  0
    6.3872  -18.8426    0.6527 H   0  0
    8.0668  -20.3698    1.5452 H   0  0
   11.8193  -21.9355    2.0854 H   0  0
   14.2033  -21.3418    2.0547 H   0  0
   15.2119  -20.3622    0.0105 H   0  0
   13.8125  -19.9646   -1.9894 H   0  0
   10.1170  -25.1018    0.2089 H   0  0
   10.6643  -24.3362    1.7080 H   0  0
   11.5239  -24.0648    0.1736 H   0  0
    6.4341  -17.5563   -2.9221 H   0  0
    5.1722  -18.5923   -2.2407 H   0  0
    7.6400  -22.7337    2.2130 H   0  0
    7.4723  -15.7085   -1.3142 H   0  0
    3.0162  -17.8065   -1.4627 H   0  0
    3.7957  -18.7400   -0.1771 H   0  0
    2.6554  -17.3146    1.5436 H   0  0
    1.8729  -16.3915    0.2619 H   0  0
    0.3498  -18.1185    1.1552 H   0  0
    1.5108  -19.3952    0.7524 H   0  0
    0.7257  -18.4672   -0.5409 H   0  0
    8.3129  -13.9889    0.0991 H   0  0
    8.9823  -11.8630    1.1535 H   0  0
    7.3091  -10.4727    2.3310 H   0  0
    4.9370  -11.1999    2.4343 H   0  0
    4.2448  -13.3229    1.3683 H   0  0
  1  2  1  0
  1  5  1  0
  1 39  1  0
  1 40  1  0
  2 10  1  0
  3 16  2  0
  4  3  1  0
  4  5  2  0
  5  6  1  0
  6  7  2  0
  6 41  1  0
  7  8  1  0
  7 19  1  0
  8  9  2  0
  8 42  1  0
  9  4  1  0
  9 43  1  0
 10 11  2  0
 11  3  1  0
 11 12  1  0
 12 13  2  0
 12 44  1  0
 13 14  1  0
 13 45  1  0
 14 15  2  0
 14 46  1  0
 15 10  1  0
 15 47  1  0
 16 17  1  0
 16 18  1  0
 17 21  2  0
 18 48  1  0
 18 49  1  0
 18 50  1  0
 19 20  1  0
 19 51  1  0
 19 52  1  0
 20 29  1  0
 21 22  1  0
 22 23  1  0
 23 24  1  0
 23 25  2  0
 24 17  1  0
 24 53  1  0
 26 27  2  0
 27 20  1  0
 27 30  1  0
 28 26  1  0
 28 29  2  0
 28 33  1  0
 29 54  1  0
 30 31  1  0
 30 55  1  0
 30 56  1  0
 31 32  1  0
 31 57  1  0
 31 58  1  0
 32 59  1  0
 32 60  1  0
 32 61  1  0
 33 34  2  0
 34 35  1  0
 34 62  1  0
 35 36  2  0
 35 63  1  0
 36 37  1  0
 36 64  1  0
 37 38  2  0
 37 65  1  0
 38 33  1  0
 38 66  1  0
M  END
> <Name>
CHEMBL4277928

> <Clean Energy>
110.877998

> <chembl_id>
CHEMBL4277928

> <chembl_pref_name>
None

> <efficacy>
0.12345679

> <Forcefield>
MMFF

> <ForcefieldBase>
MMFF

> <ForcefieldFFML>
<?xml version="1.0" encoding="UTF-8"?>
<!DOCTYPE ffml SYSTEM "Ffml.dtd">
<ffml version="1.0">
<forcefield name="MMFF" derivedFrom="MMFF" base="MMFF">
<atomTypes>
<atomType
name="C100"
element="C"
mass="12.011"
annotation=""/>
<atomType
name="O101"
element="O"
mass="16"
annotation=""/>
<atomType
name="N102"
element="N"
mass="14.007"
annotation=""/>
<atomType
name="H103"
element="H"
mass="1.008"
annotation=""/>
</atomTypes>
<parameters>
</parameters>
</forcefield>
</ffml>

> <Initial Potential Energy>
356.32964

> <Initial RMS Gradient>
40.35907

> <Minimization Criteria>
CONJUG> Minimization exiting with gradient tolerance ( 0.0100000) satisfied.

> <CHARMm Energy>
91.33488

> <Potential Energy>
91.33488

> <RMS Gradient>
0.00993

> <Bond Energy>
8.97797

> <Angle Energy>
24.21809

> <STRBend>
-0.21035

> <Dihedral Energy>
16.26815

> <OOPLane>
0.28427

> <Van der Waals Energy>
70.78797

> <Electrostatic Energy>
-28.99123

> <Hydrogen Bond Energy>
0

> <Solvation Free Energy>
0

> <HasGasteigerCharges>
true

> <REMARK99>
REMARK  99  MacroMolecule created from Mol2 file
REMARK  99  CHEMBL4277928
REMARK  99  PROTEIN
REMARK  99  GASTEIGER
REMARK  99
REMARK  99

$$$$
CHEMBL3355867
  SciTegic05292516403D

 75 78  0  0  0  0            999 V2000
    5.8224  -24.4087    2.4841 C   0  0
    5.1305  -24.5507    1.1083 C   0  0  2  0  0  0
    5.4646  -23.3342    0.2300 C   0  0
    5.2345  -24.0100    3.4865 O   0  0
    7.1320  -24.7553    2.5065 O   0  0
    6.8475  -23.4165   -0.3638 C   0  0
    7.8911  -22.6392    0.1547 C   0  0
    9.1887  -22.7683   -0.3457 C   0  0
    9.4553  -23.6758   -1.3685 C   0  0
    8.4109  -24.4241   -1.9122 C   0  0
    7.1144  -24.3009   -1.4139 C   0  0
   10.6779  -23.9162   -1.9232 O   0  0
   11.8193  -23.4287   -1.2149 C   0  0
   13.0393  -24.1712   -1.7414 C   0  0
   14.3338  -23.6937   -1.0945 C   0  0
   15.3783  -24.5496   -1.5698 O   0  0
   16.6185  -24.3563   -1.0270 C   0  0
   17.1701  -23.1152   -0.7149 C   0  0
   18.4670  -23.0408   -0.1909 C   0  0
   19.2306  -24.1960    0.0088 C   0  0
   18.6683  -25.4367   -0.3133 C   0  0
   17.3772  -25.5137   -0.8416 C   0  0
   20.5151  -24.0794    0.5710 N   0  0
   21.3850  -24.5459   -0.1987 N   0  0
   22.6626  -24.3898    0.3665 C   0  0
   23.5555  -23.4689   -0.1912 C   0  0
   24.8324  -23.3067    0.3466 C   0  0
   25.2281  -24.0741    1.4409 C   0  0
   24.3531  -25.0073    1.9944 C   0  0
   23.0763  -25.1675    1.4555 C   0  0
    3.6774  -24.5850    1.3279 N   0  0
    3.0614  -25.9181   -0.6781 C   0  0
    2.6623  -25.1190    0.5405 C   0  0
    1.3744  -24.8990    0.8744 C   0  0
    0.1768  -25.4367    0.1677 C   0  0
   -1.0082  -24.5382    0.0489 C   0  0
   -2.2754  -25.1192   -0.1076 C   0  0
   -3.4127  -24.3162   -0.2306 C   0  0
   -3.2894  -22.9280   -0.2085 C   0  0
   -2.0299  -22.3421   -0.0690 C   0  0
   -0.8889  -23.1419    0.0563 C   0  0
    0.1160  -26.5919   -0.2378 O   0  0
    5.4504  -25.5037    0.6721 H   0  0
    4.7497  -23.2401   -0.5979 H   0  0
    5.3611  -22.4064    0.8088 H   0  0
    7.4938  -25.0253    1.6371 H   0  0
    7.7022  -21.9324    0.9617 H   0  0
    9.9669  -22.1451    0.0813 H   0  0
    8.6052  -25.1157   -2.7292 H   0  0
    6.3240  -24.9040   -1.8552 H   0  0
   11.9221  -22.3518   -1.3900 H   0  0
   11.7291  -23.6249   -0.1394 H   0  0
   12.9135  -25.2498   -1.5789 H   0  0
   13.1062  -24.0631   -2.8318 H   0  0
   14.5209  -22.6558   -1.3906 H   0  0
   14.2659  -23.7625   -0.0023 H   0  0
   16.6329  -22.1902   -0.8900 H   0  0
   18.8960  -22.0716    0.0528 H   0  0
   19.2414  -26.3462   -0.1559 H   0  0
   16.9505  -26.4816   -1.0935 H   0  0
   23.2521  -22.8726   -1.0471 H   0  0
   25.5180  -22.5847   -0.0892 H   0  0
   26.2219  -23.9477    1.8607 H   0  0
   24.6657  -25.6107    2.8428 H   0  0
   22.3989  -25.8991    1.8864 H   0  0
    3.3860  -24.1733    2.2210 H   0  0
    2.2316  -26.1228   -1.3584 H   0  0
    3.4964  -26.8754   -0.3729 H   0  0
    3.8047  -25.3747   -1.2697 H   0  0
    1.1376  -24.2876    1.7401 H   0  0
   -2.3811  -26.2025   -0.1327 H   0  0
   -4.3910  -24.7757   -0.3462 H   0  0
   -4.1733  -22.3021   -0.3074 H   0  0
   -1.9364  -21.2583   -0.0658 H   0  0
    0.0827  -22.6600    0.1365 H   0  0
  1  2  1  0
  1  4  2  0
  1  5  1  0
  2  3  1  0
  2 31  1  0
  2 43  1  0
  3  6  1  0
  3 44  1  0
  3 45  1  0
  5 46  1  0
  6  7  1  0
  6 11  2  0
  7  8  2  0
  7 47  1  0
  8  9  1  0
  8 48  1  0
  9 10  2  0
  9 12  1  0
 10 11  1  0
 10 49  1  0
 11 50  1  0
 12 13  1  0
 13 14  1  0
 13 51  1  0
 13 52  1  0
 14 15  1  0
 14 53  1  0
 14 54  1  0
 15 16  1  0
 15 55  1  0
 15 56  1  0
 16 17  1  0
 17 18  1  0
 17 22  2  0
 18 19  2  0
 18 57  1  0
 19 20  1  0
 19 58  1  0
 20 21  2  0
 20 23  1  0
 21 22  1  0
 21 59  1  0
 22 60  1  0
 23 24  2  0
 24 25  1  0
 25 26  1  0
 25 30  2  0
 26 27  2  0
 26 61  1  0
 27 28  1  0
 27 62  1  0
 28 29  2  0
 28 63  1  0
 29 30  1  0
 29 64  1  0
 30 65  1  0
 31 33  1  0
 31 66  1  0
 32 33  1  0
 32 67  1  0
 32 68  1  0
 32 69  1  0
 33 34  2  0
 34 35  1  0
 34 70  1  0
 35 36  1  0
 35 42  2  0
 36 37  1  0
 36 41  2  0
 37 38  2  0
 37 71  1  0
 38 39  1  0
 38 72  1  0
 39 40  2  0
 39 73  1  0
 40 41  1  0
 40 74  1  0
 41 75  1  0
M  END
> <Name>
CHEMBL3355867

> <Clean Energy>
26.9224

> <chembl_id>
CHEMBL3355867

> <chembl_pref_name>
None

> <efficacy>
0.31

> <Forcefield>
MMFF

> <ForcefieldBase>
MMFF

> <ForcefieldFFML>
<?xml version="1.0" encoding="UTF-8"?>
<!DOCTYPE ffml SYSTEM "Ffml.dtd">
<ffml version="1.0">
<forcefield name="MMFF" derivedFrom="MMFF" base="MMFF">
<atomTypes>
<atomType
name="C100"
element="C"
mass="12.011"
annotation=""/>
<atomType
name="O101"
element="O"
mass="16"
annotation=""/>
<atomType
name="N102"
element="N"
mass="14.007"
annotation=""/>
<atomType
name="H103"
element="H"
mass="1.008"
annotation=""/>
</atomTypes>
<parameters>
</parameters>
</forcefield>
</ffml>

> <Initial Potential Energy>
303.86026

> <Initial RMS Gradient>
30.25612

> <Minimization Criteria>
CONJUG> Minimization exiting with gradient tolerance ( 0.0100000) satisfied.

> <CHARMm Energy>
156.17961

> <Potential Energy>
156.17961

> <RMS Gradient>
0.00835

> <Bond Energy>
8.27798

> <Angle Energy>
23.30627

> <STRBend>
0.78648

> <Dihedral Energy>
10.92662

> <OOPLane>
0.17424

> <Van der Waals Energy>
84.25964

> <Electrostatic Energy>
28.44837

> <Hydrogen Bond Energy>
0

> <Solvation Free Energy>
0

> <HasGasteigerCharges>
true

> <REMARK99>
REMARK  99  MacroMolecule created from Mol2 file
REMARK  99  CHEMBL3355867
REMARK  99  PROTEIN
REMARK  99  GASTEIGER
REMARK  99
REMARK  99

$$$$
CHEMBL4282451
  SciTegic05292516403D

 70 75  0  0  0  0            999 V2000
    5.7271    0.5277    1.3542 O   0  0
    4.5345    0.5518    0.5355 S   0  0
    3.7818    1.7809    0.3713 O   0  0
    4.9232    0.0692   -1.0248 N   0  0
    9.7529   -6.9897    1.6426 C   0  0
   11.1503   -6.7800    1.4181 O   0  0
   10.1211   -9.4962    0.3839 C   0  0
    9.1293   -8.5688   -0.2188 C   0  0
    8.9796   -7.3022    0.3811 C   0  0
    8.1376   -6.3321   -0.2014 C   0  0
    7.4303   -6.6123   -1.3753 C   0  0
    7.5900   -7.8869   -1.9564 C   0  0
    8.4323   -8.8515   -1.3928 C   0  0
   11.9461   -7.8089    0.9899 C   0  0
   11.5451   -9.0557    0.4899 C   0  0
   12.5381   -9.9165   -0.0336 C   0  0
   13.8934   -9.5908    0.0154 C   0  0
   14.2841   -8.3787    0.5633 C   0  0
   13.3154   -7.4933    1.0331 C   0  0
    9.7690  -10.6854    0.9360 C   0  0
    8.4489  -11.3167    0.7426 C   0  0
   10.6307  -11.5387    1.8355 C   0  0
    6.5951   -5.6034   -2.1325 C   0  0
    6.1354   -4.4210   -1.4037 N   0  0
    7.3955  -11.2482    1.4734 N   0  0
    6.4811  -12.1838    0.8815 O   0  0
    7.1610  -12.7736   -0.1549 C   0  0
    8.3446  -12.1605   -0.2842 N   0  0
    6.7877  -13.7342   -0.8117 O   0  0
    4.5923   -2.9726   -0.7259 N   0  0
    4.8814   -4.2560   -0.8482 C   0  0
    5.7249   -2.2849   -1.1036 C   0  0
    6.7348   -3.1774   -1.4628 C   0  0
    8.0137   -2.7620   -1.8523 C   0  0
    8.2548   -1.3856   -1.8759 C   0  0
    7.2462   -0.4637   -1.5768 C   0  0
    5.9621   -0.8981   -1.2202 C   0  0
    3.9729   -5.3956   -0.5062 C   0  0
    3.1175   -5.0903    0.7248 C   0  0
    2.2388   -6.2737    1.0986 C   0  0
    3.3962   -0.7011    1.0891 C   0  0
    4.9612    0.8852   -1.6338 H   0  0
    9.6018   -7.7621    2.4081 H   0  0
    9.3681   -6.0643    2.0874 H   0  0
    8.0624   -5.3513    0.2659 H   0  0
    7.0695   -8.1202   -2.8840 H   0  0
    8.5653   -9.8036   -1.9016 H   0  0
   12.2525  -10.8578   -0.4973 H   0  0
   14.6370  -10.2762   -0.3820 H   0  0
   15.3358   -8.1109    0.6053 H   0  0
   13.6216   -6.5260    1.4259 H   0  0
   11.4223  -10.9696    2.3317 H   0  0
   11.0851  -12.3564    1.2667 H   0  0
   10.0319  -11.9808    2.6406 H   0  0
    7.1716   -5.2460   -2.9947 H   0  0
    5.6973   -6.0904   -2.5332 H   0  0
    9.0364  -12.4143   -0.9644 H   0  0
    8.7895   -3.4754   -2.1157 H   0  0
    9.2409   -1.0193   -2.1535 H   0  0
    7.4706    0.5981   -1.6266 H   0  0
    3.3268   -5.6020   -1.3676 H   0  0
    4.5601   -6.3006   -0.3125 H   0  0
    3.7610   -4.8366    1.5762 H   0  0
    2.4811   -4.2171    0.5366 H   0  0
    1.6324   -6.0336    1.9775 H   0  0
    2.8459   -7.1532    1.3356 H   0  0
    1.5617   -6.5335    0.2788 H   0  0
    3.9467   -1.6112    1.3250 H   0  0
    2.6442   -0.8692    0.3165 H   0  0
    2.9118   -0.3300    1.9956 H   0  0
  2  1  2  0
  2 41  1  0
  3  2  2  0
  4  2  1  0
  4 42  1  0
  5  6  1  0
  5  9  1  0
  5 43  1  0
  5 44  1  0
  6 14  1  0
  7 20  2  0
  8  7  1  0
  8  9  2  0
  9 10  1  0
 10 11  2  0
 10 45  1  0
 11 12  1  0
 11 23  1  0
 12 13  2  0
 12 46  1  0
 13  8  1  0
 13 47  1  0
 14 15  2  0
 15  7  1  0
 15 16  1  0
 16 17  2  0
 16 48  1  0
 17 18  1  0
 17 49  1  0
 18 19  2  0
 18 50  1  0
 19 14  1  0
 19 51  1  0
 20 21  1  0
 20 22  1  0
 21 25  2  0
 22 52  1  0
 22 53  1  0
 22 54  1  0
 23 24  1  0
 23 55  1  0
 23 56  1  0
 24 33  1  0
 25 26  1  0
 26 27  1  0
 27 28  1  0
 27 29  2  0
 28 21  1  0
 28 57  1  0
 30 31  2  0
 31 24  1  0
 31 38  1  0
 32 30  1  0
 32 33  2  0
 33 34  1  0
 34 35  2  0
 34 58  1  0
 35 36  1  0
 35 59  1  0
 36 37  2  0
 36 60  1  0
 37  4  1  0
 37 32  1  0
 38 39  1  0
 38 61  1  0
 38 62  1  0
 39 40  1  0
 39 63  1  0
 39 64  1  0
 40 65  1  0
 40 66  1  0
 40 67  1  0
 41 68  1  0
 41 69  1  0
 41 70  1  0
M  END
> <Name>
CHEMBL4282451

> <Clean Energy>
121.996002

> <chembl_id>
CHEMBL4282451

> <chembl_pref_name>
None

> <efficacy>
0.066476733

> <Forcefield>
MMFF

> <ForcefieldBase>
MMFF

> <ForcefieldFFML>
<?xml version="1.0" encoding="UTF-8"?>
<!DOCTYPE ffml SYSTEM "Ffml.dtd">
<ffml version="1.0">
<forcefield name="MMFF" derivedFrom="MMFF" base="MMFF">
<atomTypes>
<atomType
name="O100"
element="O"
mass="16"
annotation=""/>
<atomType
name="S101"
element="S"
mass="32.066"
annotation=""/>
<atomType
name="N102"
element="N"
mass="14.007"
annotation=""/>
<atomType
name="C103"
element="C"
mass="12.011"
annotation=""/>
<atomType
name="H104"
element="H"
mass="1.008"
annotation=""/>
</atomTypes>
<parameters>
</parameters>
</forcefield>
</ffml>

> <Initial Potential Energy>
479.68847

> <Initial RMS Gradient>
122.17663

> <Minimization Criteria>
STEEPD> Minimization exiting with gradient tolerance ( 3.0000000) satisfied.

> <CHARMm Energy>
43.88737

> <Potential Energy>
43.88737

> <RMS Gradient>
0.04052

> <Bond Energy>
10.73806

> <Angle Energy>
31.76765

> <STRBend>
-1.09845

> <Dihedral Energy>
32.94467

> <OOPLane>
0.67381

> <Van der Waals Energy>
65.54207

> <Electrostatic Energy>
-96.68044

> <Hydrogen Bond Energy>
0

> <Solvation Free Energy>
0

> <HasGasteigerCharges>
true

> <REMARK99>
REMARK  99  MacroMolecule created from Mol2 file
REMARK  99  CHEMBL4282451
REMARK  99  PROTEIN
REMARK  99  GASTEIGER
REMARK  99
REMARK  99

$$$$
CHEMBL2322451
  SciTegic05292516403D

 65 71  0  0  0  0            999 V2000
   22.8727  -11.8825   -0.4485 C   0  0
   23.5543  -12.3494    0.6725 C   0  0
   24.0730  -11.4385    1.5849 C   0  0
   23.8856  -10.0897    1.3411 C   0  0
   23.2279   -9.6086    0.2639 N   0  0
   22.7359  -10.5073   -0.6266 C   0  0
   19.6829   -9.9615   -1.0186 C   0  0
   20.8097   -9.2052   -1.4221 N   0  0
   20.8558   -7.8078   -1.3400 C   0  0
   19.8110   -7.0982   -0.8765 C   0  0
   18.6160   -9.1582   -0.4756 C   0  0
   18.6649   -7.7918   -0.4281 C   0  0
   17.5695   -7.2400    0.1327 N   0  0
   16.8096   -8.2753    0.4728 C   0  0
   17.4290   -9.4820    0.1428 N   0  0
   15.4584   -8.1470    1.1107 C   0  0
   15.3340   -6.8795    1.9454 C   0  0
   17.0290  -10.8422    0.4713 C   0  0  1  0  0  0
   16.0490  -12.2726    2.2213 C   0  0
   17.0930  -11.1734    1.9767 C   0  0
   15.0654  -12.0249    1.1178 C   0  0
   15.6160  -11.2147    0.1173 C   0  0
   14.9062  -10.9311   -1.0363 C   0  0
   13.6084  -11.4323   -1.1543 C   0  0
   13.0281  -12.2322   -0.1426 C   0  0
   13.7827  -12.5367    1.0022 C   0  0
   11.6374  -12.6939   -0.2713 C   0  0
   10.6246  -11.7472    0.0166 C   0  0
    9.2715  -12.0698   -0.0606 C   0  0
    8.8953  -13.3512   -0.4255 C   0  0
    9.8758  -14.3015   -0.7096 C   0  0
   11.2546  -14.0048   -0.6435 C   0  0
   12.1654  -15.1099   -0.9809 C   0  0
   13.5007  -15.0279   -1.2819 N   0  0
   13.9832  -16.2382   -1.6025 N   0  0
   12.9597  -17.0650   -1.4768 N   0  0
   11.8307  -16.3886   -1.0991 N   0  0
   19.6382  -11.1859   -1.1160 O   0  0
   22.0003   -9.9479   -1.8272 C   0  0
   22.4447  -12.5838   -1.1588 H   0  0
   23.6793  -13.4167    0.8333 H   0  0
   24.6096  -11.7703    2.4667 H   0  0
   24.2633   -9.3368    2.0264 H   0  0
   21.7786   -7.3190   -1.6459 H   0  0
   19.8456   -6.0177   -0.7979 H   0  0
   14.6973   -8.1311    0.3225 H   0  0
   15.2393   -8.9954    1.7620 H   0  0
   14.3449   -6.8296    2.4117 H   0  0
   15.4618   -5.9819    1.3308 H   0  0
   16.0868   -6.8549    2.7408 H   0  0
   17.6652  -11.5461   -0.0685 H   0  0
   16.4923  -13.2674    2.1090 H   0  0
   15.5958  -12.1768    3.2121 H   0  0
   16.8494  -10.2999    2.5939 H   0  0
   18.0966  -11.4906    2.2816 H   0  0
   15.3341  -10.3237   -1.8299 H   0  0
   13.0380  -11.1850   -2.0480 H   0  0
   13.3655  -13.1533    1.7954 H   0  0
   10.8914  -10.7343    0.3163 H   0  0
    8.5147  -11.3235    0.1675 H   0  0
    7.8446  -13.6156   -0.4905 H   0  0
    9.5548  -15.3017   -0.9964 H   0  0
   14.1152  -14.2249   -1.3158 H   0  0
   21.6965  -10.7584   -2.5007 H   0  0
   22.6766   -9.2975   -2.3947 H   0  0
  1  2  2  0
  1 40  1  0
  2  3  1  0
  2 41  1  0
  3  4  2  0
  3 42  1  0
  4  5  1  0
  4 43  1  0
  5  6  2  0
  6  1  1  0
  7  8  1  0
  7 38  2  0
  8  9  1  0
  8 39  1  0
  9 10  2  0
  9 44  1  0
 10 12  1  0
 10 45  1  0
 11  7  1  0
 11 12  2  0
 12 13  1  0
 13 14  2  0
 14 15  1  0
 14 16  1  0
 15 11  1  0
 16 17  1  0
 16 46  1  0
 16 47  1  0
 17 48  1  0
 17 49  1  0
 17 50  1  0
 18 15  1  0
 18 22  1  0
 18 51  1  0
 19 20  1  0
 19 52  1  0
 19 53  1  0
 20 18  1  0
 20 54  1  0
 20 55  1  0
 21 19  1  0
 21 22  2  0
 22 23  1  0
 23 24  2  0
 23 56  1  0
 24 25  1  0
 24 57  1  0
 25 26  2  0
 25 27  1  0
 26 21  1  0
 26 58  1  0
 27 28  2  0
 28 29  1  0
 28 59  1  0
 29 30  2  0
 29 60  1  0
 30 31  1  0
 30 61  1  0
 31 32  2  0
 31 62  1  0
 32 27  1  0
 32 33  1  0
 33 34  1  0
 34 35  1  0
 34 63  1  0
 35 36  2  0
 36 37  1  0
 37 33  2  0
 39  6  1  0
 39 64  1  0
 39 65  1  0
M  END
> <Name>
CHEMBL2322451

> <Clean Energy>
107.605003

> <chembl_id>
CHEMBL2322451

> <chembl_pref_name>
None

> <efficacy>
0.163043478

> <Forcefield>
MMFF

> <ForcefieldBase>
MMFF

> <ForcefieldFFML>
<?xml version="1.0" encoding="UTF-8"?>
<!DOCTYPE ffml SYSTEM "Ffml.dtd">
<ffml version="1.0">
<forcefield name="MMFF" derivedFrom="MMFF" base="MMFF">
<atomTypes>
<atomType
name="C100"
element="C"
mass="12.011"
annotation=""/>
<atomType
name="N101"
element="N"
mass="14.007"
annotation=""/>
<atomType
name="O102"
element="O"
mass="16"
annotation=""/>
<atomType
name="H103"
element="H"
mass="1.008"
annotation=""/>
</atomTypes>
<parameters>
</parameters>
</forcefield>
</ffml>

> <Initial Potential Energy>
245.98467

> <Initial RMS Gradient>
36.95579

> <Minimization Criteria>
STEEPD> Minimization exiting with gradient tolerance ( 3.0000000) satisfied.

> <CHARMm Energy>
71.57635

> <Potential Energy>
71.57635

> <RMS Gradient>
0.06345

> <Bond Energy>
9.66309

> <Angle Energy>
20.64493

> <STRBend>
-0.52173

> <Dihedral Energy>
6.24423

> <OOPLane>
0.17986

> <Van der Waals Energy>
69.213

> <Electrostatic Energy>
-33.84703

> <Hydrogen Bond Energy>
0

> <Solvation Free Energy>
0

> <HasGasteigerCharges>
true

> <REMARK99>
REMARK  99  MacroMolecule created from Mol2 file
REMARK  99  CHEMBL2322451
REMARK  99  PROTEIN
REMARK  99  GASTEIGER
REMARK  99
REMARK  99

$$$$
CHEMBL3753786
  SciTegic05292516403D

 51 52  0  0  0  0            999 V2000
    6.1588   -5.2588   -0.9317 C   0  0
    5.1494   -5.6675    0.1589 C   0  0
    5.7175   -5.2361    1.5207 C   0  0
    3.7596   -5.0457   -0.1290 C   0  0
    3.6926   -3.5176   -0.0733 C   0  0
    2.2729   -3.0241   -0.3502 C   0  0
    2.2601   -1.6057   -0.2015 O   0  0
    1.0327   -1.0056   -0.2555 C   0  0
    1.0187    0.3417    0.1075 C   0  0
   -0.1771    1.0658    0.1051 C   0  0
   -1.3769    0.4459   -0.2575 C   0  0
   -1.3538   -0.8981   -0.6464 C   0  0
   -0.1572   -1.6209   -0.6441 C   0  0
   -2.6120    1.2352   -0.2790 C   0  0
   -3.7947    0.7744    0.1608 C   0  0
   -5.0355    1.5625    0.1290 C   0  0
   -6.2437    0.9143   -0.1521 C   0  0
   -7.4483    1.6249   -0.1695 C   0  0
   -7.4671    2.9974    0.0983 C   0  0
   -6.2631    3.6410    0.4065 C   0  0
   -5.0595    2.9302    0.4237 C   0  0
   -8.7577    3.7633    0.1092 C   0  0
    4.9990   -7.1970    0.1309 C   0  0
    5.4895   -7.9273   -0.7174 O   0  0
    4.2343   -7.6996    1.1282 O   0  0
    7.1168   -5.7740   -0.7956 H   0  0
    6.3639   -4.1832   -0.9158 H   0  0
    5.7899   -5.5153   -1.9317 H   0  0
    4.9813   -5.3451    2.3236 H   0  0
    6.0374   -4.1882    1.5110 H   0  0
    6.5890   -5.8434    1.7921 H   0  0
    3.4154   -5.3832   -1.1163 H   0  0
    3.0257   -5.4406    0.5854 H   0  0
    4.0076   -3.1512    0.9103 H   0  0
    4.3737   -3.0654   -0.8026 H   0  0
    1.9858   -3.2966   -1.3729 H   0  0
    1.5856   -3.4865    0.3692 H   0  0
    1.9463    0.8295    0.3989 H   0  0
   -0.1589    2.1108    0.4004 H   0  0
   -2.2642   -1.3967   -0.9692 H   0  0
   -0.1903   -2.6573   -0.9618 H   0  0
   -2.5224    2.2439   -0.6788 H   0  0
   -3.8954   -0.2308    0.5616 H   0  0
   -6.2595   -0.1511   -0.3693 H   0  0
   -8.3714    1.0956   -0.3944 H   0  0
   -6.2527    4.7031    0.6407 H   0  0
   -4.1454    3.4580    0.6831 H   0  0
   -8.6367    4.7249   -0.3998 H   0  0
   -9.0786    3.9404    1.1402 H   0  0
   -9.5494    3.2145   -0.4116 H   0  0
    3.8619   -7.0392    1.7403 H   0  0
  1 26  1  0
  1 27  1  0
  1 28  1  0
  2  1  1  0
  2  4  1  0
  2 23  1  0
  3  2  1  0
  3 29  1  0
  3 30  1  0
  3 31  1  0
  4  5  1  0
  4 32  1  0
  4 33  1  0
  5  6  1  0
  5 34  1  0
  5 35  1  0
  6  7  1  0
  6 36  1  0
  6 37  1  0
  7  8  1  0
  8  9  1  0
  8 13  2  0
  9 10  2  0
  9 38  1  0
 10 11  1  0
 10 39  1  0
 11 12  2  0
 11 14  1  0
 12 13  1  0
 12 40  1  0
 13 41  1  0
 14 15  2  0
 14 42  1  0
 15 16  1  0
 15 43  1  0
 16 17  1  0
 16 21  2  0
 17 18  2  0
 17 44  1  0
 18 19  1  0
 18 45  1  0
 19 20  2  0
 19 22  1  0
 20 21  1  0
 20 46  1  0
 21 47  1  0
 22 48  1  0
 22 49  1  0
 22 50  1  0
 23 24  2  0
 23 25  1  0
 25 51  1  0
M  END
> <Name>
CHEMBL3753786

> <Clean Energy>
10.3234

> <chembl_id>
CHEMBL3753786

> <chembl_pref_name>
None

> <efficacy>
0.34

> <Forcefield>
MMFF

> <ForcefieldBase>
MMFF

> <ForcefieldFFML>
<?xml version="1.0" encoding="UTF-8"?>
<!DOCTYPE ffml SYSTEM "Ffml.dtd">
<ffml version="1.0">
<forcefield name="MMFF" derivedFrom="MMFF" base="MMFF">
<atomTypes>
<atomType
name="C100"
element="C"
mass="12.011"
annotation=""/>
<atomType
name="O101"
element="O"
mass="16"
annotation=""/>
<atomType
name="H102"
element="H"
mass="1.008"
annotation=""/>
</atomTypes>
<parameters>
</parameters>
</forcefield>
</ffml>

> <Initial Potential Energy>
93.49824

> <Initial RMS Gradient>
25.6871

> <Minimization Criteria>
STEEPD> Minimization exiting with gradient tolerance ( 3.0000000) satisfied.

> <CHARMm Energy>
41.05315

> <Potential Energy>
41.05315

> <RMS Gradient>
0.12473

> <Bond Energy>
5.14149

> <Angle Energy>
9.93902

> <STRBend>
0.41021

> <Dihedral Energy>
2.59618

> <OOPLane>
0.05079

> <Van der Waals Energy>
53.50438

> <Electrostatic Energy>
-30.58892

> <Hydrogen Bond Energy>
0

> <Solvation Free Energy>
0

> <HasGasteigerCharges>
true

> <REMARK99>
REMARK  99  MacroMolecule created from Mol2 file
REMARK  99  CHEMBL3753786
REMARK  99  PROTEIN
REMARK  99  GASTEIGER
REMARK  99
REMARK  99

$$$$
CHEMBL981
  SciTegic05292516403D

 37 38  0  0  0  0            999 V2000
    2.7022    2.8060    0.5050 C   0  0
    2.6483    1.5414   -0.0985 C   0  0
    3.8041    0.9912   -0.6655 C   0  0
    5.0166    1.6800   -0.5829 C   0  0
    5.0686    2.9226    0.0462 C   0  0
    3.9152    3.4963    0.5800 C   0  0
    6.5711    3.7443    0.1628 Cl  0  0
    1.3435    0.8332   -0.1578 C   0  0
    0.3122    1.4870   -0.2849 O   0  0
    1.2548   -0.6473   -0.0703 C   0  0
    0.2463   -1.3023   -0.7834 C   0  0
    0.1214   -2.6974   -0.7240 C   0  0
    0.9923   -3.4497    0.0561 C   0  0
    1.9904   -2.7852    0.7811 C   0  0
    2.1194   -1.3935    0.7320 C   0  0
    1.0162   -4.8012    0.2071 O   0  0
   -0.0278   -5.7004   -0.2250 C   0  0
    0.4024   -7.0745    0.3483 C   0  0
   -1.3882   -5.3797    0.3985 C   0  0
   -0.0551   -5.8731   -1.7450 C   0  0
   -0.2454   -8.1077    0.2483 O   0  0
    1.6054   -7.0390    0.9803 O   0  0
    1.7991    3.2462    0.9230 H   0  0
    3.7780    0.0353   -1.1817 H   0  0
    5.9112    1.2348   -1.0112 H   0  0
    3.9559    4.4765    1.0530 H   0  0
   -0.4498   -0.7284   -1.3937 H   0  0
   -0.6735   -3.1426   -1.3076 H   0  0
    2.6744   -3.3545    1.4075 H   0  0
    2.8851   -0.9135    1.3357 H   0  0
   -2.1070   -6.1904    0.2356 H   0  0
   -1.8352   -4.4707   -0.0104 H   0  0
   -1.2919   -5.2276    1.4798 H   0  0
   -0.7168   -6.6942   -2.0437 H   0  0
    0.9491   -6.0945   -2.1254 H   0  0
   -0.3969   -4.9783   -2.2680 H   0  0
    1.9572   -6.1220    0.9493 H   0  0
  1  2  2  0
  1 23  1  0
  2  3  1  0
  2  8  1  0
  3  4  2  0
  3 24  1  0
  4  5  1  0
  4 25  1  0
  5  6  2  0
  5  7  1  0
  6  1  1  0
  6 26  1  0
  8  9  2  0
  8 10  1  0
 10 11  2  0
 11 12  1  0
 11 27  1  0
 12 13  2  0
 12 28  1  0
 13 14  1  0
 13 16  1  0
 14 15  2  0
 14 29  1  0
 15 10  1  0
 15 30  1  0
 16 17  1  0
 17 18  1  0
 17 19  1  0
 17 20  1  0
 18 21  2  0
 18 22  1  0
 19 31  1  0
 19 32  1  0
 19 33  1  0
 20 34  1  0
 20 35  1  0
 20 36  1  0
 22 37  1  0
M  END
> <Name>
CHEMBL981

> <Clean Energy>
23.297199

> <chembl_id>
CHEMBL981

> <chembl_pref_name>
FENOFIBRIC ACID

> <efficacy>
0.086666667

> <Forcefield>
MMFF

> <ForcefieldBase>
MMFF

> <ForcefieldFFML>
<?xml version="1.0" encoding="UTF-8"?>
<!DOCTYPE ffml SYSTEM "Ffml.dtd">
<ffml version="1.0">
<forcefield name="MMFF" derivedFrom="MMFF" base="MMFF">
<atomTypes>
<atomType
name="C100"
element="C"
mass="12.011"
annotation=""/>
<atomType
name="Cl101"
element="Cl"
mass="35.453"
annotation=""/>
<atomType
name="O102"
element="O"
mass="16"
annotation=""/>
<atomType
name="H103"
element="H"
mass="1.008"
annotation=""/>
</atomTypes>
<parameters>
</parameters>
</forcefield>
</ffml>

> <Initial Potential Energy>
172.3499

> <Initial RMS Gradient>
33.00918

> <Minimization Criteria>
STEEPD> Minimization exiting with gradient tolerance ( 3.0000000) satisfied.

> <CHARMm Energy>
93.8045

> <Potential Energy>
93.8045

> <RMS Gradient>
0.13591

> <Bond Energy>
4.73564

> <Angle Energy>
18.26036

> <STRBend>
0.99293

> <Dihedral Energy>
7.72813

> <OOPLane>
0.01668

> <Van der Waals Energy>
46.04164

> <Electrostatic Energy>
16.02911

> <Hydrogen Bond Energy>
0

> <Solvation Free Energy>
0

> <HasGasteigerCharges>
true

> <REMARK99>
REMARK  99  MacroMolecule created from Mol2 file
REMARK  99  CHEMBL981
REMARK  99  PROTEIN
REMARK  99  GASTEIGER
REMARK  99
REMARK  99

$$$$
CHEMBL5090334
  SciTegic05292516403D

 57 59  0  0  0  0            999 V2000
   -0.0727  -22.5536    0.8273 C   0  0
    0.7358  -21.9150   -0.3107 C   0  0
    0.5178  -22.5560   -1.6879 C   0  0
    9.4810  -26.9693   -0.9250 C   0  0
    8.8118  -27.0375    0.3019 C   0  0
    9.4625  -26.6772    1.4814 C   0  0
   10.7728  -26.2033    1.4279 C   0  0
   11.4473  -26.1154    0.2048 C   0  0
   10.7883  -26.4916   -0.9729 C   0  0
   12.7591  -25.6161    0.1732 N   0  0
   13.5539  -26.5190   -0.1682 N   0  0
    7.5272  -27.4971    0.4130 O   0  0
    6.5807  -26.4843    0.0256 C   0  0
    5.9261  -25.8873    1.2714 C   0  0
    4.8959  -24.8413    0.9309 C   0  0
    5.2165  -23.4817    0.9628 C   0  0
    4.2504  -22.5229    0.6411 C   0  0
    2.9514  -22.8931    0.2758 C   0  0
    2.6403  -24.2476    0.2264 C   0  0
    3.6025  -25.2143    0.5529 C   0  0
    2.1381  -21.8368    0.0005 O   0  0
    0.2615  -20.4294   -0.4058 C   0  0
   -1.0386  -20.2716   -0.7852 O   0  0
    0.9470  -19.4466   -0.1557 O   0  0
   14.8525  -25.9952   -0.2593 C   0  0
   15.3872  -25.6803   -1.5119 C   0  0
   16.6814  -25.1715   -1.6206 C   0  0
   17.4579  -24.9695   -0.4734 C   0  0
   16.9335  -25.3113    0.7793 C   0  0
   15.6384  -25.8196    0.8841 C   0  0
    8.7292  -27.4598   -2.3990 Cl  0  0
   18.8621  -24.4548   -0.5920 C   0  0
    0.1117  -23.6235    0.9351 H   0  0
   -1.1521  -22.4387    0.6843 H   0  0
    0.1870  -22.0908    1.7868 H   0  0
    1.0060  -21.9580   -2.4670 H   0  0
   -0.5428  -22.6370   -1.9454 H   0  0
    0.9417  -23.5583   -1.7666 H   0  0
    8.9529  -26.7618    2.4374 H   0  0
   11.2824  -25.9120    2.3432 H   0  0
   11.3120  -26.4187   -1.9220 H   0  0
    7.0285  -25.6917   -0.5898 H   0  0
    5.8256  -26.9790   -0.5967 H   0  0
    5.4626  -26.6841    1.8674 H   0  0
    6.6911  -25.4561    1.9289 H   0  0
    6.2172  -23.1544    1.2388 H   0  0
    4.5099  -21.4662    0.6795 H   0  0
    1.6656  -24.6122   -0.0656 H   0  0
    3.3259  -26.2664    0.5106 H   0  0
   -1.5074  -21.1081   -0.9541 H   0  0
   14.7822  -25.8280   -2.4026 H   0  0
   17.0837  -24.9367   -2.6039 H   0  0
   17.5352  -25.1866    1.6776 H   0  0
   15.2287  -26.0769    1.8572 H   0  0
   19.1407  -23.8740    0.2936 H   0  0
   18.9644  -23.7933   -1.4587 H   0  0
   19.5592  -25.2913   -0.7010 H   0  0
  1 33  1  0
  1 34  1  0
  1 35  1  0
  2  1  1  0
  2 22  1  0
  3  2  1  0
  3 36  1  0
  3 37  1  0
  3 38  1  0
  4  5  2  0
  4 31  1  0
  5  6  1  0
  5 12  1  0
  6  7  2  0
  6 39  1  0
  7  8  1  0
  7 40  1  0
  8  9  2  0
  8 10  1  0
  9  4  1  0
  9 41  1  0
 10 11  2  0
 11 25  1  0
 12 13  1  0
 13 14  1  0
 13 42  1  0
 13 43  1  0
 14 15  1  0
 14 44  1  0
 14 45  1  0
 15 16  2  0
 16 17  1  0
 16 46  1  0
 17 18  2  0
 17 47  1  0
 18 19  1  0
 18 21  1  0
 19 20  2  0
 19 48  1  0
 20 15  1  0
 20 49  1  0
 21  2  1  0
 22 23  1  0
 22 24  2  0
 23 50  1  0
 25 26  2  0
 26 27  1  0
 26 51  1  0
 27 28  2  0
 27 52  1  0
 28 29  1  0
 28 32  1  0
 29 30  2  0
 29 53  1  0
 30 25  1  0
 30 54  1  0
 32 55  1  0
 32 56  1  0
 32 57  1  0
M  END
> <Name>
CHEMBL5090334

> <Clean Energy>
46.3335

> <chembl_id>
CHEMBL5090334

> <chembl_pref_name>
None

> <efficacy>
0.398860399

> <Forcefield>
MMFF

> <ForcefieldBase>
MMFF

> <ForcefieldFFML>
<?xml version="1.0" encoding="UTF-8"?>
<!DOCTYPE ffml SYSTEM "Ffml.dtd">
<ffml version="1.0">
<forcefield name="MMFF" derivedFrom="MMFF" base="MMFF">
<atomTypes>
<atomType
name="C100"
element="C"
mass="12.011"
annotation=""/>
<atomType
name="N101"
element="N"
mass="14.007"
annotation=""/>
<atomType
name="O102"
element="O"
mass="16"
annotation=""/>
<atomType
name="Cl103"
element="Cl"
mass="35.453"
annotation=""/>
<atomType
name="H104"
element="H"
mass="1.008"
annotation=""/>
</atomTypes>
<parameters>
</parameters>
</forcefield>
</ffml>

> <Initial Potential Energy>
726.64674

> <Initial RMS Gradient>
365.38601

> <Minimization Criteria>
CONJUG> Minimization exiting with gradient tolerance ( 0.0100000) satisfied.

> <CHARMm Energy>
108.39209

> <Potential Energy>
108.39209

> <RMS Gradient>
0.00988

> <Bond Energy>
6.6243

> <Angle Energy>
20.1113

> <STRBend>
0.49274

> <Dihedral Energy>
14.30709

> <OOPLane>
0.05317

> <Van der Waals Energy>
64.16373

> <Electrostatic Energy>
2.63978

> <Hydrogen Bond Energy>
0

> <Solvation Free Energy>
0

> <HasGasteigerCharges>
true

> <REMARK99>
REMARK  99  MacroMolecule created from Mol2 file
REMARK  99  CHEMBL5090334
REMARK  99  PROTEIN
REMARK  99  GASTEIGER
REMARK  99
REMARK  99

$$$$
CHEMBL5090373
  SciTegic05292516403D

 60 62  0  0  0  0            999 V2000
   31.9783   -8.6912    1.3368 C   0  0
   32.6274   -8.1003    0.0770 C   0  0
   32.2179   -8.7844   -1.2345 C   0  0
   41.3218  -13.3230   -1.1888 C   0  0
   40.7214  -13.2776    0.0755 C   0  0
   41.4242  -12.8318    1.1946 C   0  0
   42.7299  -12.3684    1.0487 C   0  0
   43.3457  -12.3689   -0.2085 C   0  0
   42.6293  -12.8323   -1.3200 C   0  0
   44.6525  -11.8787   -0.3748 N   0  0
   45.4759  -12.6753    0.1268 N   0  0
   39.4384  -13.7159    0.2615 O   0  0
   38.4958  -12.6771   -0.0605 C   0  0
   37.9253  -12.0741    1.2231 C   0  0
   36.8738  -11.0296    0.9478 C   0  0
   37.2060   -9.6732    0.8998 C   0  0
   36.2206   -8.7151    0.6405 C   0  0
   34.8890   -9.0836    0.4204 C   0  0
   34.5646  -10.4359    0.4485 C   0  0
   35.5471  -11.4015    0.7117 C   0  0
   34.0596   -8.0290    0.1884 O   0  0
   32.1513   -6.6139   -0.0079 C   0  0
   30.8099   -6.4584   -0.1980 O   0  0
   32.8705   -5.6286    0.0909 O   0  0
   46.7852  -12.1759    0.0098 C   0  0
   47.5444  -11.9846    1.1680 C   0  0
   48.8560  -11.5120    1.0898 C   0  0
   49.4357  -11.2410   -0.1553 C   0  0
   48.6789  -11.4311   -1.3175 C   0  0
   47.3680  -11.9046   -1.2345 C   0  0
   40.5944  -13.8456   -2.3931 C   0  0
   50.8349  -10.7035   -0.2392 C   0  0
   32.1672   -9.7594    1.4544 H   0  0
   30.8904   -8.5685    1.3409 H   0  0
   32.3716   -8.2003    2.2349 H   0  0
   32.5949   -8.2160   -2.0934 H   0  0
   31.1315   -8.8647   -1.3391 H   0  0
   32.6238   -9.7918   -1.3385 H   0  0
   40.9591  -12.8431    2.1758 H   0  0
   43.2811  -12.0126    1.9152 H   0  0
   43.1141  -12.8239   -2.2934 H   0  0
   38.9259  -11.8941   -0.7008 H   0  0
   37.6950  -13.1505   -0.6411 H   0  0
   37.5036  -12.8686    1.8525 H   0  0
   38.7304  -11.6381    1.8272 H   0  0
   38.2315   -9.3481    1.0660 H   0  0
   36.4905   -7.6607    0.6151 H   0  0
   33.5628  -10.7992    0.2674 H   0  0
   35.2600  -12.4513    0.7332 H   0  0
   30.3183   -7.2962   -0.2617 H   0  0
   47.1004  -12.1985    2.1369 H   0  0
   49.4279  -11.3631    2.0039 H   0  0
   49.1107  -11.2183   -2.2935 H   0  0
   46.7877  -12.0582   -2.1406 H   0  0
   41.2966  -14.1492   -3.1769 H   0  0
   39.9354  -13.0727   -2.8000 H   0  0
   39.9996  -14.7285   -2.1375 H   0  0
   51.3151  -11.0083   -1.1751 H   0  0
   51.4503  -11.0874    0.5812 H   0  0
   50.8190   -9.6105   -0.1891 H   0  0
  1 33  1  0
  1 34  1  0
  1 35  1  0
  2  1  1  0
  2 22  1  0
  3  2  1  0
  3 36  1  0
  3 37  1  0
  3 38  1  0
  4  5  2  0
  4 31  1  0
  5  6  1  0
  5 12  1  0
  6  7  2  0
  6 39  1  0
  7  8  1  0
  7 40  1  0
  8  9  2  0
  8 10  1  0
  9  4  1  0
  9 41  1  0
 10 11  2  0
 11 25  1  0
 12 13  1  0
 13 14  1  0
 13 42  1  0
 13 43  1  0
 14 15  1  0
 14 44  1  0
 14 45  1  0
 15 16  2  0
 16 17  1  0
 16 46  1  0
 17 18  2  0
 17 47  1  0
 18 19  1  0
 18 21  1  0
 19 20  2  0
 19 48  1  0
 20 15  1  0
 20 49  1  0
 21  2  1  0
 22 23  1  0
 22 24  2  0
 23 50  1  0
 25 26  2  0
 26 27  1  0
 26 51  1  0
 27 28  2  0
 27 52  1  0
 28 29  1  0
 28 32  1  0
 29 30  2  0
 29 53  1  0
 30 25  1  0
 30 54  1  0
 31 55  1  0
 31 56  1  0
 31 57  1  0
 32 58  1  0
 32 59  1  0
 32 60  1  0
M  END
> <Name>
CHEMBL5090373

> <Clean Energy>
52.124199

> <chembl_id>
CHEMBL5090373

> <chembl_pref_name>
None

> <efficacy>
0.218423552

> <Forcefield>
MMFF

> <ForcefieldBase>
MMFF

> <ForcefieldFFML>
<?xml version="1.0" encoding="UTF-8"?>
<!DOCTYPE ffml SYSTEM "Ffml.dtd">
<ffml version="1.0">
<forcefield name="MMFF" derivedFrom="MMFF" base="MMFF">
<atomTypes>
<atomType
name="C100"
element="C"
mass="12.011"
annotation=""/>
<atomType
name="N101"
element="N"
mass="14.007"
annotation=""/>
<atomType
name="O102"
element="O"
mass="16"
annotation=""/>
<atomType
name="H103"
element="H"
mass="1.008"
annotation=""/>
</atomTypes>
<parameters>
</parameters>
</forcefield>
</ffml>

> <Initial Potential Energy>
704.06208

> <Initial RMS Gradient>
335.95388

> <Minimization Criteria>
CONJUG> Minimization exiting with gradient tolerance ( 0.0100000) satisfied.

> <CHARMm Energy>
106.47981

> <Potential Energy>
106.47981

> <RMS Gradient>
0.00823

> <Bond Energy>
7.05329

> <Angle Energy>
19.8062

> <STRBend>
0.51559

> <Dihedral Energy>
13.92222

> <OOPLane>
0.04862

> <Van der Waals Energy>
65.87784

> <Electrostatic Energy>
-0.74395

> <Hydrogen Bond Energy>
0

> <Solvation Free Energy>
0

> <HasGasteigerCharges>
true

> <REMARK99>
REMARK  99  MacroMolecule created from Mol2 file
REMARK  99  CHEMBL5090373
REMARK  99  PROTEIN
REMARK  99  GASTEIGER
REMARK  99
REMARK  99

$$$$
CHEMBL4869429
  SciTegic05292516403D

 57 60  0  0  0  0            999 V2000
   12.7585   -5.1223    0.7830 C   0  0
   13.6402   -5.9260    0.0627 C   0  0
   14.7624   -5.3784   -0.5583 C   0  0
   12.9548   -3.7356    0.8937 C   0  0
   14.0926   -3.1628    0.2793 C   0  0
   14.9660   -3.9979   -0.4202 C   0  0
   15.9699   -3.1627   -0.8618 N   0  0
   15.6901   -1.8852   -0.4174 C   0  0
   14.5444   -1.8577    0.2389 N   0  0
   16.5893   -0.7139   -0.6637 C   0  0
   16.1619    0.5283    0.1198 C   0  0
   17.1074    1.6935   -0.1267 C   0  0
   17.0772   -3.5650   -1.7264 C   0  0
   18.0957   -4.4972   -1.1008 C   0  0
   18.2842   -4.6252    0.2798 C   0  0
   19.2633   -5.4880    0.7913 C   0  0
   20.1060   -6.2307   -0.0537 C   0  0
   19.9282   -6.0860   -1.4360 C   0  0
   18.9381   -5.2364   -1.9500 C   0  0
   21.1847   -7.0724    0.5059 C   0  0
   21.3509   -8.4523    0.2537 C   0  0
   22.4565   -9.1494    0.7844 C   0  0
   23.3916   -8.5009    1.5876 C   0  0
   23.2351   -7.1486    1.8610 C   0  0
   22.1522   -6.4466    1.3235 C   0  0
   11.9854   -3.0846    1.6455 O   0  0
   12.0141   -1.6604    1.5922 C   0  0
   20.4305   -9.2751   -0.5692 C   0  0
   20.8269  -10.1457   -1.3325 O   0  0
   19.1398   -8.9916   -0.2723 O   0  0
   18.2006   -9.8046   -0.9750 C   0  0
   11.9025   -5.5805    1.2698 H   0  0
   13.4482   -6.9941   -0.0107 H   0  0
   15.4554   -6.0103   -1.1044 H   0  0
   17.6145   -0.9805   -0.3787 H   0  0
   16.5907   -0.4852   -1.7363 H   0  0
   15.1456    0.8247   -0.1677 H   0  0
   16.1378    0.3066    1.1939 H   0  0
   16.7837    2.5714    0.4412 H   0  0
   17.1283    1.9635   -1.1873 H   0  0
   18.1266    1.4441    0.1853 H   0  0
   16.6133   -4.0473   -2.5963 H   0  0
   17.5897   -2.6663   -2.0825 H   0  0
   17.6727   -4.0671    0.9869 H   0  0
   19.3674   -5.5713    1.8724 H   0  0
   20.5734   -6.6229   -2.1305 H   0  0
   18.8390   -5.1513   -3.0312 H   0  0
   22.5843  -10.2103    0.5726 H   0  0
   24.2358   -9.0505    1.9959 H   0  0
   23.9550   -6.6258    2.4852 H   0  0
   22.0762   -5.3805    1.5361 H   0  0
   11.1270   -1.2923    2.1168 H   0  0
   11.9616   -1.2970    0.5607 H   0  0
   12.8916   -1.2686    2.1156 H   0  0
   18.2986   -9.6579   -2.0553 H   0  0
   17.1954   -9.4959   -0.6749 H   0  0
   18.3320  -10.8589   -0.7122 H   0  0
  1  2  2  0
  1 32  1  0
  2  3  1  0
  2 33  1  0
  3  6  2  0
  3 34  1  0
  4  1  1  0
  4 26  1  0
  5  4  2  0
  5  6  1  0
  6  7  1  0
  7  8  1  0
  7 13  1  0
  8  9  2  0
  8 10  1  0
  9  5  1  0
 10 11  1  0
 10 35  1  0
 10 36  1  0
 11 12  1  0
 11 37  1  0
 11 38  1  0
 12 39  1  0
 12 40  1  0
 12 41  1  0
 13 14  1  0
 13 42  1  0
 13 43  1  0
 14 15  2  0
 15 16  1  0
 15 44  1  0
 16 17  2  0
 16 45  1  0
 17 18  1  0
 17 20  1  0
 18 19  2  0
 18 46  1  0
 19 14  1  0
 19 47  1  0
 20 21  2  0
 21 22  1  0
 21 28  1  0
 22 23  2  0
 22 48  1  0
 23 24  1  0
 23 49  1  0
 24 25  2  0
 24 50  1  0
 25 20  1  0
 25 51  1  0
 26 27  1  0
 27 52  1  0
 27 53  1  0
 27 54  1  0
 28 29  2  0
 28 30  1  0
 30 31  1  0
 31 55  1  0
 31 56  1  0
 31 57  1  0
M  END
> <Name>
CHEMBL4869429

> <Clean Energy>
62.755901

> <chembl_id>
CHEMBL4869429

> <chembl_pref_name>
None

> <efficacy>
0.196581197

> <Forcefield>
MMFF

> <ForcefieldBase>
MMFF

> <ForcefieldFFML>
<?xml version="1.0" encoding="UTF-8"?>
<!DOCTYPE ffml SYSTEM "Ffml.dtd">
<ffml version="1.0">
<forcefield name="MMFF" derivedFrom="MMFF" base="MMFF">
<atomTypes>
<atomType
name="C100"
element="C"
mass="12.011"
annotation=""/>
<atomType
name="N101"
element="N"
mass="14.007"
annotation=""/>
<atomType
name="O102"
element="O"
mass="16"
annotation=""/>
<atomType
name="H103"
element="H"
mass="1.008"
annotation=""/>
</atomTypes>
<parameters>
</parameters>
</forcefield>
</ffml>

> <Initial Potential Energy>
311.15924

> <Initial RMS Gradient>
36.34535

> <Minimization Criteria>
STEEPD> Minimization exiting with gradient tolerance ( 3.0000000) satisfied.

> <CHARMm Energy>
101.82704

> <Potential Energy>
101.82704

> <RMS Gradient>
0.02032

> <Bond Energy>
7.85561

> <Angle Energy>
14.71008

> <STRBend>
0.22007

> <Dihedral Energy>
5.11072

> <OOPLane>
0.21151

> <Van der Waals Energy>
61.44683

> <Electrostatic Energy>
12.27221

> <Hydrogen Bond Energy>
0

> <Solvation Free Energy>
0

> <HasGasteigerCharges>
true

> <REMARK99>
REMARK  99  MacroMolecule created from Mol2 file
REMARK  99  CHEMBL4869429
REMARK  99  PROTEIN
REMARK  99  GASTEIGER
REMARK  99
REMARK  99

$$$$
CHEMBL5171949
  SciTegic05292516403D

 51 53  0  0  0  0            999 V2000
    6.2062    0.2509   -0.7829 O   0  0
    5.0407   -0.1152   -0.6633 C   0  0
    4.6625   -1.5303   -0.9397 C   0  0
    5.6438   -2.3709   -1.4957 C   0  0
    5.3519   -3.7054   -1.7857 C   0  0
    4.0804   -4.2105   -1.5224 C   0  0
    3.1053   -3.3885   -0.9577 C   0  0
    3.3929   -2.0527   -0.6612 C   0  0
    4.0554    0.7995   -0.3367 N   0  0
    4.4264    2.0869    0.2985 C   0  0  1  0  0  0
    4.9707    3.1474   -0.6735 C   0  0
    5.1306    2.7263   -1.9495 O   0  0
    5.2692    4.2892   -0.3407 O   0  0
    3.2391    2.7235    1.0329 C   0  0
    2.4740    1.5564    2.2184 S   0  0
    1.0507    2.5720    2.7301 C   0  0
   -0.2590    1.9418    2.3281 C   0  0
   -1.2128    1.6205    3.3017 C   0  0
   -2.4407    1.0643    2.9350 C   0  0
   -2.7430    0.8254    1.5912 C   0  0
   -1.7781    1.1080    0.6185 C   0  0
   -0.5589    1.6847    0.9820 C   0  0
   -4.0832    0.2662    1.2524 C   0  0
   -4.7996   -0.2301    2.1224 O   0  0
   -4.6099    0.3002   -0.1318 C   0  0
   -5.2288   -0.8467   -0.6393 C   0  0
   -5.6998   -0.8506   -1.9509 C   0  0
   -5.5948    0.2955   -2.7404 C   0  0
   -5.0327    1.4573   -2.2172 C   0  0
   -4.5462    1.4637   -0.9096 C   0  0
    6.6453   -1.9938   -1.7080 H   0  0
    6.1177   -4.3472   -2.2160 H   0  0
    3.8448   -5.2478   -1.7479 H   0  0
    2.1195   -3.7934   -0.7390 H   0  0
    2.6116   -1.4609   -0.1979 H   0  0
    3.1044    0.4869   -0.1919 H   0  0
    5.2385    1.8721    1.0055 H   0  0
    4.8999    1.7748   -1.9950 H   0  0
    3.5579    3.6164    1.5815 H   0  0
    2.4752    3.0254    0.3071 H   0  0
    1.1060    2.6767    3.8192 H   0  0
    1.1100    3.5828    2.3120 H   0  0
   -1.0167    1.8047    4.3570 H   0  0
   -3.1640    0.8222    3.7086 H   0  0
   -1.9484    0.8892   -0.4318 H   0  0
    0.1591    1.9232    0.2011 H   0  0
   -5.3538   -1.7347   -0.0206 H   0  0
   -6.1826   -1.7413   -2.3489 H   0  0
   -5.9897    0.2876   -3.7546 H   0  0
   -4.9573    2.3546   -2.8266 H   0  0
   -4.1044    2.3743   -0.5120 H   0  0
  2  1  2  0
  2  3  1  0
  3  8  1  0
  4  3  2  0
  4 31  1  0
  5  4  1  0
  5 32  1  0
  6  5  2  0
  6 33  1  0
  7  6  1  0
  7 34  1  0
  8  7  2  0
  8 35  1  0
  9  2  1  0
  9 36  1  0
 10  9  1  0
 10 11  1  0
 10 37  1  0
 11 12  1  0
 11 13  2  0
 12 38  1  0
 14 10  1  0
 14 39  1  0
 14 40  1  0
 15 14  1  0
 16 15  1  0
 16 41  1  0
 16 42  1  0
 17 16  1  0
 17 22  2  0
 18 17  1  0
 18 43  1  0
 19 18  2  0
 19 44  1  0
 20 19  1  0
 21 20  2  0
 21 45  1  0
 22 21  1  0
 22 46  1  0
 23 20  1  0
 23 24  2  0
 25 23  1  0
 25 30  2  0
 26 25  1  0
 26 47  1  0
 27 26  2  0
 27 48  1  0
 28 27  1  0
 28 49  1  0
 29 28  2  0
 29 50  1  0
 30 29  1  0
 30 51  1  0
M  END
> <Name>
CHEMBL5171949

> <Clean Energy>
12.9205

> <chembl_id>
CHEMBL5171949

> <chembl_pref_name>
None

> <efficacy>
0.21

> <Forcefield>
MMFF

> <ForcefieldBase>
MMFF

> <ForcefieldFFML>
<?xml version="1.0" encoding="UTF-8"?>
<!DOCTYPE ffml SYSTEM "Ffml.dtd">
<ffml version="1.0">
<forcefield name="MMFF" derivedFrom="MMFF" base="MMFF">
<atomTypes>
<atomType
name="O100"
element="O"
mass="16"
annotation=""/>
<atomType
name="C101"
element="C"
mass="12.011"
annotation=""/>
<atomType
name="N102"
element="N"
mass="14.007"
annotation=""/>
<atomType
name="S103"
element="S"
mass="32.066"
annotation=""/>
<atomType
name="H104"
element="H"
mass="1.008"
annotation=""/>
</atomTypes>
<parameters>
</parameters>
</forcefield>
</ffml>

> <Initial Potential Energy>
221.17499

> <Initial RMS Gradient>
36.87066

> <Minimization Criteria>
CONJUG> Minimization exiting with gradient tolerance ( 0.0100000) satisfied.

> <CHARMm Energy>
91.26601

> <Potential Energy>
91.26601

> <RMS Gradient>
0.00807

> <Bond Energy>
6.99507

> <Angle Energy>
11.20905

> <STRBend>
1.56708

> <Dihedral Energy>
9.20432

> <OOPLane>
0.49033

> <Van der Waals Energy>
63.60953

> <Electrostatic Energy>
-1.80936

> <Hydrogen Bond Energy>
0

> <Solvation Free Energy>
0

> <HasGasteigerCharges>
true

> <REMARK99>
REMARK  99  MacroMolecule created from Mol2 file
REMARK  99  CHEMBL5171949
REMARK  99  PROTEIN
REMARK  99  GASTEIGER
REMARK  99
REMARK  99

$$$$
CHEMBL4848717
  SciTegic05292516403D

 53 56  0  0  0  0            999 V2000
   36.3620  -24.9886    0.9728 C   0  0
   36.8139  -25.5927   -0.2007 C   0  0
   38.0447  -25.2424   -0.7714 C   0  0
   37.1382  -24.0117    1.6086 C   0  0
   38.3732  -23.6348    1.0484 C   0  0
   38.8022  -24.2540   -0.1249 C   0  0
   40.0258  -23.6720   -0.3915 N   0  0
   40.2652  -22.7145    0.5740 C   0  0
   39.2986  -22.7080    1.4677 N   0  0
   41.4534  -21.8076    0.6124 C   0  0
   41.1903  -20.5154   -0.1605 C   0  0
   42.3920  -19.5852   -0.1122 C   0  0
   40.9007  -24.0100   -1.5078 C   0  0
   42.1598  -24.7280   -1.0785 C   0  0
   42.1610  -25.6749   -0.0453 C   0  0
   43.3453  -26.3069    0.3393 C   0  0
   44.5556  -26.0376   -0.3165 C   0  0
   44.5462  -25.1145   -1.3707 C   0  0
   43.3637  -24.4717   -1.7511 C   0  0
   45.7993  -26.6996    0.1057 C   0  0
   45.9775  -28.0951    0.0511 C   0  0
   47.1490  -28.6959    0.5342 C   0  0
   48.1675  -27.9094    1.0671 C   0  0
   48.0223  -26.5258    1.1124 C   0  0
   46.8499  -25.9282    0.6392 C   0  0
   36.5084  -23.2113    3.2021 Br  0  0
   44.9519  -28.9698   -0.5518 C   0  0
   44.5823  -28.9111   -1.7112 O   0  0
   44.5029  -29.8161    0.4091 O   0  0
   43.4502  -30.6733   -0.0320 C   0  0
   35.4023  -25.2838    1.3913 H   0  0
   36.2017  -26.3539   -0.6806 H   0  0
   38.3808  -25.7246   -1.6836 H   0  0
   41.6703  -21.5661    1.6607 H   0  0
   42.3469  -22.3050    0.2251 H   0  0
   40.9524  -20.7394   -1.2072 H   0  0
   40.3177  -19.9986    0.2576 H   0  0
   42.1821  -18.6657   -0.6675 H   0  0
   43.2722  -20.0585   -0.5588 H   0  0
   42.6347  -19.3110    0.9194 H   0  0
   40.3507  -24.6347   -2.2180 H   0  0
   41.1363  -23.0661   -2.0125 H   0  0
   41.2467  -25.9228    0.4911 H   0  0
   43.3143  -27.0139    1.1669 H   0  0
   45.4652  -24.8962   -1.9120 H   0  0
   43.3968  -23.7636   -2.5768 H   0  0
   47.2636  -29.7753    0.4908 H   0  0
   49.0724  -28.3730    1.4474 H   0  0
   48.8173  -25.9096    1.5268 H   0  0
   46.7501  -24.8458    0.7094 H   0  0
   42.5869  -30.0848   -0.3587 H   0  0
   43.1441  -31.2964    0.8128 H   0  0
   43.8008  -31.3276   -0.8363 H   0  0
  1  2  2  0
  1 31  1  0
  2  3  1  0
  2 32  1  0
  3  6  2  0
  3 33  1  0
  4  1  1  0
  4 26  1  0
  5  4  2  0
  5  6  1  0
  6  7  1  0
  7  8  1  0
  7 13  1  0
  8  9  2  0
  8 10  1  0
  9  5  1  0
 10 11  1  0
 10 34  1  0
 10 35  1  0
 11 12  1  0
 11 36  1  0
 11 37  1  0
 12 38  1  0
 12 39  1  0
 12 40  1  0
 13 14  1  0
 13 41  1  0
 13 42  1  0
 14 15  2  0
 15 16  1  0
 15 43  1  0
 16 17  2  0
 16 44  1  0
 17 18  1  0
 17 20  1  0
 18 19  2  0
 18 45  1  0
 19 14  1  0
 19 46  1  0
 20 21  2  0
 21 22  1  0
 21 27  1  0
 22 23  2  0
 22 47  1  0
 23 24  1  0
 23 48  1  0
 24 25  2  0
 24 49  1  0
 25 20  1  0
 25 50  1  0
 27 28  2  0
 27 29  1  0
 29 30  1  0
 30 51  1  0
 30 52  1  0
 30 53  1  0
M  END
> <Name>
CHEMBL4848717

> <Clean Energy>
62.716099

> <chembl_id>
CHEMBL4848717

> <chembl_pref_name>
None

> <efficacy>
0.110161443

> <Forcefield>
MMFF

> <ForcefieldBase>
MMFF

> <ForcefieldFFML>
<?xml version="1.0" encoding="UTF-8"?>
<!DOCTYPE ffml SYSTEM "Ffml.dtd">
<ffml version="1.0">
<forcefield name="MMFF" derivedFrom="MMFF" base="MMFF">
<atomTypes>
<atomType
name="C100"
element="C"
mass="12.011"
annotation=""/>
<atomType
name="N101"
element="N"
mass="14.007"
annotation=""/>
<atomType
name="Br102"
element="Br"
mass="79.904"
annotation=""/>
<atomType
name="O103"
element="O"
mass="16"
annotation=""/>
<atomType
name="H104"
element="H"
mass="1.008"
annotation=""/>
</atomTypes>
<parameters>
</parameters>
</forcefield>
</ffml>

> <Initial Potential Energy>
296.74683

> <Initial RMS Gradient>
37.58905

> <Minimization Criteria>
CONJUG> Minimization exiting with gradient tolerance ( 0.0100000) satisfied.

> <CHARMm Energy>
100.79045

> <Potential Energy>
100.79045

> <RMS Gradient>
0.00991

> <Bond Energy>
6.47927

> <Angle Energy>
6.97931

> <STRBend>
-0.26882

> <Dihedral Energy>
8.29507

> <OOPLane>
0.0276

> <Van der Waals Energy>
54.86117

> <Electrostatic Energy>
24.41686

> <Hydrogen Bond Energy>
0

> <Solvation Free Energy>
0

> <HasGasteigerCharges>
true

> <REMARK99>
REMARK  99  MacroMolecule created from Mol2 file
REMARK  99  CHEMBL4848717
REMARK  99  PROTEIN
REMARK  99  GASTEIGER
REMARK  99
REMARK  99

$$$$
CHEMBL5079941
  SciTegic05292516403D

 51 53  0  0  0  0            999 V2000
    1.0271  -13.4867   -1.6244 C   0  0
    0.3004  -12.9385   -0.3907 C   0  0
   -0.2117  -11.5136   -0.6133 C   0  0
    9.2096  -10.8835    0.6735 C   0  0
    8.4217  -11.5085   -0.2919 C   0  0
    9.0280  -12.1139   -1.3950 C   0  0
   10.4156  -12.1234   -1.5192 C   0  0
   11.2148  -11.5272   -0.5405 C   0  0
   10.5985  -10.8955    0.5473 C   0  0
   12.6113  -11.5383   -0.6823 N   0  0
   13.1240  -12.2574    0.2037 N   0  0
    7.0604  -11.5914   -0.2732 O   0  0
    6.4126  -11.1945    0.9341 C   0  0
    4.9804  -11.6639    0.8784 C   0  0
    3.9220  -10.7710    1.0871 C   0  0
    2.6040  -11.2264    1.0605 C   0  0
    2.3425  -12.5682    0.8026 C   0  0
    3.3851  -13.4757    0.6363 C   0  0
    4.7008  -13.0225    0.6629 C   0  0
    1.0657  -13.0429    0.8391 O   0  0
   -0.9254  -13.8352   -0.1479 C   0  0
   -1.8155  -14.0329   -0.9635 O   0  0
   -0.9487  -14.4006    1.0878 O   0  0
   14.5234  -12.2767    0.0745 C   0  0
   15.1727  -13.4982   -0.1346 C   0  0
   16.5618  -13.5529   -0.2421 C   0  0
   17.3119  -12.3832   -0.1310 C   0  0
   16.6800  -11.1610    0.0909 C   0  0
   15.2908  -11.1099    0.1984 C   0  0
    1.8965  -12.8745   -1.8867 H   0  0
    0.3681  -13.5124   -2.4996 H   0  0
    1.3859  -14.5069   -1.4473 H   0  0
   -0.6684  -11.1155    0.3001 H   0  0
   -0.9612  -11.4732   -1.4115 H   0  0
    0.6003  -10.8350   -0.8927 H   0  0
    8.7744  -10.3842    1.5323 H   0  0
    8.4074  -12.5905   -2.1513 H   0  0
   10.8864  -12.6008   -2.3751 H   0  0
   11.2150  -10.4139    1.3027 H   0  0
    6.8785  -11.6564    1.8140 H   0  0
    6.4536  -10.1025    1.0250 H   0  0
    4.1116   -9.7175    1.2802 H   0  0
    1.7963  -10.5288    1.2541 H   0  0
    3.1771  -14.5311    0.4852 H   0  0
    5.5176  -13.7281    0.5171 H   0  0
   -0.1385  -14.1225    1.5745 H   0  0
   14.5850  -14.4086   -0.2182 H   0  0
   17.0619  -14.5035   -0.4123 H   0  0
   18.3939  -12.4244   -0.2165 H   0  0
   17.2709  -10.2526    0.1792 H   0  0
   14.7947  -10.1594    0.3759 H   0  0
  1 30  1  0
  1 31  1  0
  1 32  1  0
  2  1  1  0
  2 21  1  0
  3  2  1  0
  3 33  1  0
  3 34  1  0
  3 35  1  0
  4  5  2  0
  4 36  1  0
  5  6  1  0
  5 12  1  0
  6  7  2  0
  6 37  1  0
  7  8  1  0
  7 38  1  0
  8  9  2  0
  8 10  1  0
  9  4  1  0
  9 39  1  0
 10 11  2  0
 11 24  1  0
 12 13  1  0
 13 14  1  0
 13 40  1  0
 13 41  1  0
 14 15  2  0
 15 16  1  0
 15 42  1  0
 16 17  2  0
 16 43  1  0
 17 18  1  0
 17 20  1  0
 18 19  2  0
 18 44  1  0
 19 14  1  0
 19 45  1  0
 20  2  1  0
 21 22  2  0
 21 23  1  0
 23 46  1  0
 24 25  2  0
 25 26  1  0
 25 47  1  0
 26 27  2  0
 26 48  1  0
 27 28  1  0
 27 49  1  0
 28 29  2  0
 28 50  1  0
 29 24  1  0
 29 51  1  0
M  END
> <Name>
CHEMBL5079941

> <Clean Energy>
37.5056

> <chembl_id>
CHEMBL5079941

> <chembl_pref_name>
None

> <efficacy>
0.208926876

> <Forcefield>
MMFF

> <ForcefieldBase>
MMFF

> <ForcefieldFFML>
<?xml version="1.0" encoding="UTF-8"?>
<!DOCTYPE ffml SYSTEM "Ffml.dtd">
<ffml version="1.0">
<forcefield name="MMFF" derivedFrom="MMFF" base="MMFF">
<atomTypes>
<atomType
name="C100"
element="C"
mass="12.011"
annotation=""/>
<atomType
name="N101"
element="N"
mass="14.007"
annotation=""/>
<atomType
name="O102"
element="O"
mass="16"
annotation=""/>
<atomType
name="H103"
element="H"
mass="1.008"
annotation=""/>
</atomTypes>
<parameters>
</parameters>
</forcefield>
</ffml>

> <Initial Potential Energy>
615.00442

> <Initial RMS Gradient>
305.93961

> <Minimization Criteria>
STEEPD> Minimization exiting with gradient tolerance ( 3.0000000) satisfied.

> <CHARMm Energy>
84.83677

> <Potential Energy>
84.83677

> <RMS Gradient>
0.02506

> <Bond Energy>
5.29695

> <Angle Energy>
13.05787

> <STRBend>
0.21603

> <Dihedral Energy>
16.52162

> <OOPLane>
0.12735

> <Van der Waals Energy>
63.16285

> <Electrostatic Energy>
-13.54589

> <Hydrogen Bond Energy>
0

> <Solvation Free Energy>
0

> <HasGasteigerCharges>
true

> <REMARK99>
REMARK  99  MacroMolecule created from Mol2 file
REMARK  99  CHEMBL5079941
REMARK  99  PROTEIN
REMARK  99  GASTEIGER
REMARK  99
REMARK  99

$$$$
CHEMBL4858879
  SciTegic05292516403D

 53 56  0  0  0  0            999 V2000
   24.7672  -25.1276    0.9891 C   0  0
   25.2185  -25.7209   -0.1887 C   0  0
   26.4490  -25.3620   -0.7599 C   0  0
   25.5517  -24.1587    1.6148 C   0  0
   26.7848  -23.7628    1.0690 C   0  0
   27.2100  -24.3752   -0.1108 C   0  0
   28.4318  -23.7905   -0.3794 N   0  0
   28.6751  -22.8388    0.5910 C   0  0
   27.7121  -22.8372    1.4887 N   0  0
   29.8639  -21.9326    0.6304 C   0  0
   29.5965  -20.6334   -0.1292 C   0  0
   30.7994  -19.7047   -0.0817 C   0  0
   29.3031  -24.1227   -1.5005 C   0  0
   30.5606  -24.8472   -1.0776 C   0  0
   30.5576  -25.8074   -0.0570 C   0  0
   31.7409  -26.4415    0.3269 C   0  0
   32.9546  -26.1603   -0.3175 C   0  0
   32.9494  -25.2256   -1.3614 C   0  0
   31.7676  -24.5810   -1.7409 C   0  0
   34.1974  -26.8208    0.1084 C   0  0
   34.3836  -28.2138    0.0346 C   0  0
   35.5513  -28.8174    0.5213 C   0  0
   36.5596  -28.0341    1.0777 C   0  0
   36.4079  -26.6518    1.1420 C   0  0
   35.2381  -26.0524    0.6649 C   0  0
   25.0661  -23.3898    3.0606 Cl  0  0
   33.3717  -29.0839   -0.5939 C   0  0
   33.0727  -29.0596   -1.7746 O   0  0
   32.8542  -29.8869    0.3690 O   0  0
   31.8040  -30.7330   -0.0982 C   0  0
   23.8117  -25.4192    1.4167 H   0  0
   24.6081  -26.4803   -0.6740 H   0  0
   26.7828  -25.8373   -1.6769 H   0  0
   30.0874  -21.7008    1.6795 H   0  0
   30.7547  -22.4267    0.2330 H   0  0
   29.3509  -20.8482   -1.1760 H   0  0
   28.7275  -20.1194    0.2996 H   0  0
   30.5872  -18.7812   -0.6294 H   0  0
   31.6764  -20.1758   -0.5371 H   0  0
   31.0488  -19.4380    0.9502 H   0  0
   28.7497  -24.7407   -2.2139 H   0  0
   29.5402  -23.1758   -1.9989 H   0  0
   29.6411  -26.0630    0.4720 H   0  0
   31.7072  -27.1575    1.1466 H   0  0
   33.8715  -24.9980   -1.8935 H   0  0
   31.8042  -23.8619   -2.5570 H   0  0
   35.6718  -29.8954    0.4617 H   0  0
   37.4625  -28.4991    1.4609 H   0  0
   37.1966  -26.0392    1.5737 H   0  0
   35.1318  -24.9717    0.7505 H   0  0
   30.9774  -30.1361   -0.4964 H   0  0
   31.4332  -31.3136    0.7510 H   0  0
   32.1810  -31.4277   -0.8553 H   0  0
  1  2  2  0
  1 31  1  0
  2  3  1  0
  2 32  1  0
  3  6  2  0
  3 33  1  0
  4  1  1  0
  4 26  1  0
  5  4  2  0
  5  6  1  0
  6  7  1  0
  7  8  1  0
  7 13  1  0
  8  9  2  0
  8 10  1  0
  9  5  1  0
 10 11  1  0
 10 34  1  0
 10 35  1  0
 11 12  1  0
 11 36  1  0
 11 37  1  0
 12 38  1  0
 12 39  1  0
 12 40  1  0
 13 14  1  0
 13 41  1  0
 13 42  1  0
 14 15  2  0
 15 16  1  0
 15 43  1  0
 16 17  2  0
 16 44  1  0
 17 18  1  0
 17 20  1  0
 18 19  2  0
 18 45  1  0
 19 14  1  0
 19 46  1  0
 20 21  2  0
 21 22  1  0
 21 27  1  0
 22 23  2  0
 22 47  1  0
 23 24  1  0
 23 48  1  0
 24 25  2  0
 24 49  1  0
 25 20  1  0
 25 50  1  0
 27 28  2  0
 27 29  1  0
 29 30  1  0
 30 51  1  0
 30 52  1  0
 30 53  1  0
M  END
> <Name>
CHEMBL4858879

> <Clean Energy>
62.682499

> <chembl_id>
CHEMBL4858879

> <chembl_pref_name>
None

> <efficacy>
0.210826211

> <Forcefield>
MMFF

> <ForcefieldBase>
MMFF

> <ForcefieldFFML>
<?xml version="1.0" encoding="UTF-8"?>
<!DOCTYPE ffml SYSTEM "Ffml.dtd">
<ffml version="1.0">
<forcefield name="MMFF" derivedFrom="MMFF" base="MMFF">
<atomTypes>
<atomType
name="C100"
element="C"
mass="12.011"
annotation=""/>
<atomType
name="N101"
element="N"
mass="14.007"
annotation=""/>
<atomType
name="Cl102"
element="Cl"
mass="35.453"
annotation=""/>
<atomType
name="O103"
element="O"
mass="16"
annotation=""/>
<atomType
name="H104"
element="H"
mass="1.008"
annotation=""/>
</atomTypes>
<parameters>
</parameters>
</forcefield>
</ffml>

> <Initial Potential Energy>
302.02471

> <Initial RMS Gradient>
37.83056

> <Minimization Criteria>
CONJUG> Minimization exiting with gradient tolerance ( 0.0100000) satisfied.

> <CHARMm Energy>
105.52153

> <Potential Energy>
105.52153

> <RMS Gradient>
0.00994

> <Bond Energy>
6.41227

> <Angle Energy>
7.98468

> <STRBend>
-0.32753

> <Dihedral Energy>
8.83058

> <OOPLane>
0.02478

> <Van der Waals Energy>
54.63071

> <Electrostatic Energy>
27.96605

> <Hydrogen Bond Energy>
0

> <Solvation Free Energy>
0

> <HasGasteigerCharges>
true

> <REMARK99>
REMARK  99  MacroMolecule created from Mol2 file
REMARK  99  CHEMBL4858879
REMARK  99  PROTEIN
REMARK  99  GASTEIGER
REMARK  99
REMARK  99

$$$$
CHEMBL4852747
  SciTegic05292516403D

 47 49  0  0  0  0            999 V2000
   10.7207   -2.2019    0.3232 C   0  0
    0.6157   -6.1729    0.2253 C   0  0
    0.6247   -7.5169    0.6591 C   0  0
    1.8217   -8.2114    0.8569 C   0  0
    1.8237   -5.5024   -0.0119 C   0  0
   -0.6384   -5.6409    0.0766 O   0  0
    2.9995   -6.2018    0.1881 C   0  0
    2.9892   -7.5251    0.6104 C   0  0
    4.3725   -7.9669    0.7099 C   0  0
    5.1357   -6.7521    0.3209 C   0  0
    4.2709   -5.7087    0.0027 O   0  0
    6.4747   -6.7197    0.2870 C   0  0
    7.3187   -5.5721   -0.0773 C   0  0
    4.7553   -9.0748    1.0227 O   0  0
    8.5725   -5.8245   -0.6533 C   0  0
    9.4558   -4.7802   -0.9647 C   0  0
    9.0790   -3.4676   -0.6514 C   0  0
    7.8110   -3.1790   -0.1261 C   0  0
    6.9543   -4.2449    0.1863 C   0  0
    7.3800   -1.7689    0.1628 C   0  0
   10.7943   -5.0897   -1.5702 C   0  0
    9.9674   -2.4434   -0.8643 O   0  0
   10.9045   -0.7127    0.5881 C   0  0
   11.2763   -0.4495    1.8706 O   0  0
   10.7811    0.1859   -0.2314 O   0  0
   -0.7153   -4.2920   -0.3845 C   0  0
   -2.1827   -3.9169   -0.4898 C   0  0
   11.7173   -2.6380    0.1942 H   0  0
   10.2521   -2.6465    1.2118 H   0  0
   -0.3222   -8.0223    0.8398 H   0  0
    1.8319   -9.2453    1.1842 H   0  0
    1.8746   -4.4720   -0.3416 H   0  0
    7.0141   -7.6314    0.5423 H   0  0
    8.8696   -6.8506   -0.8665 H   0  0
    5.9970   -4.0228    0.6519 H   0  0
    6.2881   -1.6909    0.1998 H   0  0
    7.7211   -1.0865   -0.6226 H   0  0
    7.7834   -1.4417    1.1259 H   0  0
   11.5674   -5.0846   -0.7958 H   0  0
   11.0518   -4.3574   -2.3424 H   0  0
   10.7932   -6.0738   -2.0509 H   0  0
   11.2958   -1.2417    2.4425 H   0  0
   -0.2245   -3.6186    0.3276 H   0  0
   -0.2507   -4.2004   -1.3730 H   0  0
   -2.2977   -2.8872   -0.8398 H   0  0
   -2.6771   -4.0176    0.4821 H   0  0
   -2.7029   -4.5863   -1.1829 H   0  0
  1 23  1  0
  1 28  1  0
  1 29  1  0
  2  3  2  0
  2  6  1  0
  3  4  1  0
  3 30  1  0
  4  8  2  0
  4 31  1  0
  5  2  1  0
  5 32  1  0
  6 26  1  0
  7  5  2  0
  7  8  1  0
  8  9  1  0
  9 10  1  0
  9 14  2  0
 10 11  1  0
 10 12  2  0
 11  7  1  0
 12 13  1  0
 12 33  1  0
 13 15  2  0
 15 16  1  0
 15 34  1  0
 16 17  2  0
 16 21  1  0
 17 18  1  0
 17 22  1  0
 18 19  2  0
 18 20  1  0
 19 13  1  0
 19 35  1  0
 20 36  1  0
 20 37  1  0
 20 38  1  0
 21 39  1  0
 21 40  1  0
 21 41  1  0
 22  1  1  0
 23 24  1  0
 23 25  2  0
 24 42  1  0
 26 27  1  0
 26 43  1  0
 26 44  1  0
 27 45  1  0
 27 46  1  0
 27 47  1  0
M  END
> <Name>
CHEMBL4852747

> <Clean Energy>
36.414001

> <chembl_id>
CHEMBL4852747

> <chembl_pref_name>
None

> <efficacy>
0.3

> <Forcefield>
MMFF

> <ForcefieldBase>
MMFF

> <ForcefieldFFML>
<?xml version="1.0" encoding="UTF-8"?>
<!DOCTYPE ffml SYSTEM "Ffml.dtd">
<ffml version="1.0">
<forcefield name="MMFF" derivedFrom="MMFF" base="MMFF">
<atomTypes>
<atomType
name="C100"
element="C"
mass="12.011"
annotation=""/>
<atomType
name="O101"
element="O"
mass="16"
annotation=""/>
<atomType
name="H102"
element="H"
mass="1.008"
annotation=""/>
</atomTypes>
<parameters>
</parameters>
</forcefield>
</ffml>

> <Initial Potential Energy>
144.08541

> <Initial RMS Gradient>
26.05355

> <Minimization Criteria>
CONJUG> Minimization exiting with gradient tolerance ( 0.0100000) satisfied.

> <CHARMm Energy>
82.43385

> <Potential Energy>
82.43385

> <RMS Gradient>
0.00954

> <Bond Energy>
4.16019

> <Angle Energy>
26.23287

> <STRBend>
0.14737

> <Dihedral Energy>
4.52424

> <OOPLane>
0.07527

> <Van der Waals Energy>
47.83761

> <Electrostatic Energy>
-0.5437

> <Hydrogen Bond Energy>
0

> <Solvation Free Energy>
0

> <HasGasteigerCharges>
true

> <REMARK99>
REMARK  99  MacroMolecule created from Mol2 file
REMARK  99  CHEMBL4852747
REMARK  99  PROTEIN
REMARK  99  GASTEIGER
REMARK  99
REMARK  99

$$$$
CHEMBL5207420
  SciTegic05292516403D

 42 43  0  0  0  0            999 V2000
   -4.5705    0.5266   -0.2778 C   0  0
   -4.6665    1.9224   -0.3923 C   0  0
   -5.6642   -0.1889    0.2315 C   0  0
   -6.8320    0.4771    0.6072 C   0  0
   -6.9176    1.8626    0.4804 C   0  0
   -5.8363    2.5856   -0.0193 C   0  0
   -3.2958   -0.1815   -0.6663 C   0  0
   -2.2008   -0.4049    0.7783 S   0  0
   -0.6497   -0.9503   -0.0679 C   0  0  1  0  0  0
    0.4935    0.0491    0.2397 C   0  0  1  0  0  0
    1.8367   -0.4666   -0.0769 N   0  0
    2.9449    0.0485    0.5673 C   0  0
    2.8266    1.0150    1.3186 O   0  0
    4.2723   -0.5565    0.2695 C   0  0
    5.4234    0.2047    0.5202 C   0  0
    6.6910   -0.3280    0.2716 C   0  0
    6.8135   -1.6258   -0.2224 C   0  0
    5.6742   -2.3943   -0.4619 C   0  0
    4.4044   -1.8650   -0.2135 C   0  0
    0.3108    1.3587   -0.5474 C   0  0
   -0.3628    1.4736   -1.5631 O   0  0
    1.0375    2.3915   -0.0500 O   0  0
   -0.3453   -2.3598    0.4466 C   0  0
   -3.8212    2.4983   -0.7668 H   0  0
   -5.6054   -1.2687    0.3475 H   0  0
   -7.6748   -0.0825    1.0049 H   0  0
   -7.8265    2.3809    0.7767 H   0  0
   -5.9044    3.6666   -0.1130 H   0  0
   -3.5290   -1.1629   -1.0939 H   0  0
   -2.7800    0.3951   -1.4405 H   0  0
   -0.8241   -1.0148   -1.1478 H   0  0
    0.4709    0.2935    1.3104 H   0  0
    1.9556   -1.0873   -0.8679 H   0  0
    5.3359    1.2169    0.9109 H   0  0
    7.5837    0.2641    0.4677 H   0  0
    7.8014   -2.0422   -0.4106 H   0  0
    5.7775   -3.4117   -0.8324 H   0  0
    3.5366   -2.4975   -0.3751 H   0  0
    1.6405    2.1054    0.6827 H   0  0
    0.5161   -2.7889   -0.0763 H   0  0
   -1.1875   -3.0397    0.2729 H   0  0
   -0.1157   -2.3613    1.5183 H   0  0
  1  2  1  0
  1  3  2  0
  1  7  1  0
  2  6  2  0
  2 24  1  0
  3  4  1  0
  3 25  1  0
  4  5  2  0
  4 26  1  0
  5  6  1  0
  5 27  1  0
  6 28  1  0
  7  8  1  0
  7 29  1  0
  7 30  1  0
  8  9  1  0
  9 10  1  0
  9 23  1  0
  9 31  1  0
 10 11  1  0
 10 20  1  0
 10 32  1  0
 11 12  1  0
 11 33  1  0
 12 13  2  0
 12 14  1  0
 14 15  2  0
 14 19  1  0
 15 16  1  0
 15 34  1  0
 16 17  2  0
 16 35  1  0
 17 18  1  0
 17 36  1  0
 18 19  2  0
 18 37  1  0
 19 38  1  0
 20 21  2  0
 20 22  1  0
 22 39  1  0
 23 40  1  0
 23 41  1  0
 23 42  1  0
M  END
> <Name>
CHEMBL5207420

> <Clean Energy>
6.46477

> <chembl_id>
CHEMBL5207420

> <chembl_pref_name>
None

> <efficacy>
0.33

> <Forcefield>
MMFF

> <ForcefieldBase>
MMFF

> <ForcefieldFFML>
<?xml version="1.0" encoding="UTF-8"?>
<!DOCTYPE ffml SYSTEM "Ffml.dtd">
<ffml version="1.0">
<forcefield name="MMFF" derivedFrom="MMFF" base="MMFF">
<atomTypes>
<atomType
name="C100"
element="C"
mass="12.011"
annotation=""/>
<atomType
name="S101"
element="S"
mass="32.066"
annotation=""/>
<atomType
name="N102"
element="N"
mass="14.007"
annotation=""/>
<atomType
name="O103"
element="O"
mass="16"
annotation=""/>
<atomType
name="H104"
element="H"
mass="1.008"
annotation=""/>
</atomTypes>
<parameters>
</parameters>
</forcefield>
</ffml>

> <Initial Potential Energy>
131.78236

> <Initial RMS Gradient>
27.78499

> <Minimization Criteria>
CONJUG> Minimization exiting with gradient tolerance ( 0.0100000) satisfied.

> <CHARMm Energy>
56.75721

> <Potential Energy>
56.75721

> <RMS Gradient>
0.00995

> <Bond Energy>
5.53463

> <Angle Energy>
5.41642

> <STRBend>
0.888

> <Dihedral Energy>
9.94793

> <OOPLane>
0.22196

> <Van der Waals Energy>
44.73196

> <Electrostatic Energy>
-9.98367

> <Hydrogen Bond Energy>
0

> <Solvation Free Energy>
0

> <HasGasteigerCharges>
true

> <REMARK99>
REMARK  99  MacroMolecule created from Mol2 file
REMARK  99  CHEMBL5207420
REMARK  99  PROTEIN
REMARK  99  GASTEIGER
REMARK  99
REMARK  99

$$$$
CHEMBL5202264
  SciTegic05292516403D

 65 67  0  0  0  0            999 V2000
   -3.5910   -1.0374    0.6142 C   0  0
   -2.8577   -0.0688   -0.0665 C   0  0
   -1.8598   -0.4469   -0.9690 C   0  0
   -1.5885   -1.7991   -1.2040 C   0  0
   -2.3209   -2.7706   -0.5098 C   0  0
   -3.3256   -2.3818    0.3768 C   0  0
   -1.2139    0.5847   -1.5906 O   0  0
   -0.0122    0.2726   -2.3138 C   0  0  2  0  0  0
   -0.1297   -1.0640   -3.0698 C   0  0
   -0.4879   -2.2086   -2.1355 C   0  0
   -4.0175   -3.3181    1.0897 O   0  0
   -5.0268   -3.9423    0.2875 C   0  0
    1.1955    0.2911   -1.3427 C   0  0
    0.1417    1.3883   -3.3648 C   0  0
    1.2200    1.5061   -0.4081 C   0  0
    2.5021    1.5606    0.3764 C   0  0
    3.5923    2.2900    0.0728 C   0  0
    4.8050    2.2869    0.9811 C   0  0
    4.9020    3.5621    1.8114 C   0  0
    6.3202    3.7789    2.2603 C   0  0
    7.0486    4.3365    1.2512 O   0  0
    8.4219    4.5715    1.5789 C   0  0
    9.1014    5.1783    0.3667 C   0  0
    6.7563    3.4874    3.3646 O   0  0
    3.7391    3.1248   -1.1750 C   0  0
   -6.3847   -3.6296    0.8675 C   0  0
   -6.8071   -4.2457    2.0534 C   0  0
   -8.0535   -3.9421    2.6010 C   0  0
   -8.8870   -3.0189    1.9714 C   0  0
   -8.4727   -2.3921    0.7976 C   0  0
   -7.2240   -2.6908    0.2505 C   0  0
   -4.3647   -0.7527    1.3224 H   0  0
   -3.0304    0.9877    0.1231 H   0  0
   -2.1146   -3.8284   -0.6539 H   0  0
   -0.9286   -0.9830   -3.8204 H   0  0
    0.7950   -1.2967   -3.6112 H   0  0
    0.3842   -2.5193   -1.5494 H   0  0
   -0.8024   -3.0716   -2.7344 H   0  0
   -4.9862   -3.6535   -0.7723 H   0  0
   -4.8590   -5.0256    0.3203 H   0  0
    1.1800   -0.5993   -0.7031 H   0  0
    2.1255    0.2344   -1.9236 H   0  0
    1.0750    1.2866   -3.9282 H   0  0
    0.1127    2.3839   -2.9111 H   0  0
   -0.6926    1.3668   -4.0761 H   0  0
    1.0702    2.4405   -0.9552 H   0  0
    0.3895    1.4478    0.3062 H   0  0
    2.4963    0.9607    1.2865 H   0  0
    4.7800    1.4241    1.6599 H   0  0
    5.7038    2.1409    0.3681 H   0  0
    4.5801    4.4555    1.2638 H   0  0
    4.2598    3.4992    2.6977 H   0  0
    8.4869    5.2649    2.4248 H   0  0
    8.9079    3.6246    1.8391 H   0  0
   10.1560    5.3821    0.5719 H   0  0
    8.6104    6.1131    0.0767 H   0  0
    9.0326    4.5028   -0.4924 H   0  0
    3.7239    4.1906   -0.9288 H   0  0
    2.9533    2.9383   -1.9114 H   0  0
    4.6891    2.8984   -1.6712 H   0  0
   -6.1573   -4.9561    2.5599 H   0  0
   -8.3763   -4.4249    3.5205 H   0  0
   -9.8598   -2.7867    2.3997 H   0  0
   -9.1220   -1.6681    0.3121 H   0  0
   -6.9009   -2.1797   -0.6545 H   0  0
  1  6  1  0
  1 32  1  0
  2  1  2  0
  2 33  1  0
  3  2  1  0
  3  7  1  0
  4  3  2  0
  4 10  1  0
  5  4  1  0
  5 34  1  0
  6  5  2  0
  6 11  1  0
  8  7  1  0
  8 13  1  0
  8 14  1  0
  9  8  1  0
  9 35  1  0
  9 36  1  0
 10  9  1  0
 10 37  1  0
 10 38  1  0
 11 12  1  0
 12 26  1  0
 12 39  1  0
 12 40  1  0
 13 15  1  0
 13 41  1  0
 13 42  1  0
 14 43  1  0
 14 44  1  0
 14 45  1  0
 15 16  1  0
 15 46  1  0
 15 47  1  0
 16 17  2  0
 16 48  1  0
 17 18  1  0
 17 25  1  0
 18 19  1  0
 18 49  1  0
 18 50  1  0
 19 20  1  0
 19 51  1  0
 19 52  1  0
 20 21  1  0
 20 24  2  0
 21 22  1  0
 22 23  1  0
 22 53  1  0
 22 54  1  0
 23 55  1  0
 23 56  1  0
 23 57  1  0
 25 58  1  0
 25 59  1  0
 25 60  1  0
 26 31  1  0
 27 26  2  0
 27 61  1  0
 28 27  1  0
 28 62  1  0
 29 28  2  0
 29 63  1  0
 30 29  1  0
 30 64  1  0
 31 30  2  0
 31 65  1  0
M  END
> <Name>
CHEMBL5202264

> <Clean Energy>
18.764799

> <chembl_id>
CHEMBL5202264

> <chembl_pref_name>
None

> <efficacy>
0.38

> <Forcefield>
MMFF

> <ForcefieldBase>
MMFF

> <ForcefieldFFML>
<?xml version="1.0" encoding="UTF-8"?>
<!DOCTYPE ffml SYSTEM "Ffml.dtd">
<ffml version="1.0">
<forcefield name="MMFF" derivedFrom="MMFF" base="MMFF">
<atomTypes>
<atomType
name="C100"
element="C"
mass="12.011"
annotation=""/>
<atomType
name="O101"
element="O"
mass="16"
annotation=""/>
<atomType
name="H102"
element="H"
mass="1.008"
annotation=""/>
</atomTypes>
<parameters>
</parameters>
</forcefield>
</ffml>

> <Initial Potential Energy>
124.64665

> <Initial RMS Gradient>
22.25153

> <Minimization Criteria>
STEEPD> Minimization exiting with gradient tolerance ( 3.0000000) satisfied.

> <CHARMm Energy>
51.86657

> <Potential Energy>
51.86657

> <RMS Gradient>
0.11267

> <Bond Energy>
5.44961

> <Angle Energy>
13.15653

> <STRBend>
0.13783

> <Dihedral Energy>
3.46022

> <OOPLane>
0.07247

> <Van der Waals Energy>
59.00748

> <Electrostatic Energy>
-29.41757

> <Hydrogen Bond Energy>
0

> <Solvation Free Energy>
0

> <HasGasteigerCharges>
true

> <REMARK99>
REMARK  99  MacroMolecule created from Mol2 file
REMARK  99  CHEMBL5202264
REMARK  99  PROTEIN
REMARK  99  GASTEIGER
REMARK  99
REMARK  99

$$$$
CHEMBL4860127
  SciTegic05292516403D

 55 58  0  0  0  0            999 V2000
   25.1720   -3.6384    1.5291 C   0  0
   25.6582   -4.8240    0.9826 C   0  0
   26.8215   -4.8388    0.1976 C   0  0
   25.8604   -2.4434    1.2834 C   0  0
   27.0390   -2.4160    0.5269 C   0  0
   27.4994   -3.6233   -0.0006 C   0  0
   28.6492   -3.2845   -0.6860 N   0  0
   28.8454   -1.9235   -0.5392 C   0  0
   27.8762   -1.3877    0.1785 N   0  0
   29.9872   -1.1718   -1.1514 C   0  0
   30.2686    0.1469   -0.4292 C   0  0
   31.4520    0.8765   -1.0450 C   0  0
   29.4127   -4.1821   -1.5488 C   0  0
   30.6035   -4.8320   -0.8809 C   0  0
   30.4887   -5.5528    0.3153 C   0  0
   31.5917   -6.2254    0.8595 C   0  0
   32.8419   -6.2036    0.2253 C   0  0
   32.9573   -5.4778   -0.9671 C   0  0
   31.8540   -4.8099   -1.5168 C   0  0
   34.0124   -6.8490    0.8487 C   0  0
   34.5575   -8.1012    0.4692 C   0  0
   35.6798   -8.6086    1.1576 C   0  0
   36.2660   -7.8929    2.2024 C   0  0
   35.7399   -6.6621    2.5772 C   0  0
   34.6297   -6.1487    1.9086 C   0  0
   25.3631   -1.1978    1.8069 N   0  3
   25.1593   -0.2660    1.0139 O   0  0
   25.0721   -1.1669    3.0145 O   0  5
   33.9404   -8.9371   -0.6078 C   0  0
   32.7756   -8.8427   -0.9636 O   0  0
   34.8553   -9.8038   -1.1251 O   0  0
   34.3391  -10.6273   -2.1711 C   0  0
   24.2634   -3.6426    2.1290 H   0  0
   25.1337   -5.7603    1.1651 H   0  0
   27.1802   -5.7709   -0.2288 H   0  0
   30.8927   -1.7877   -1.1222 H   0  0
   29.7553   -0.9764   -2.2054 H   0  0
   29.3866    0.7973   -0.4692 H   0  0
   30.4764   -0.0443    0.6309 H   0  0
   31.6368    1.8156   -0.5139 H   0  0
   31.2631    1.1122   -2.0972 H   0  0
   32.3610    0.2689   -0.9861 H   0  0
   28.7352   -4.9583   -1.9217 H   0  0
   29.7202   -3.5961   -2.4227 H   0  0
   29.5415   -5.6157    0.8437 H   0  0
   31.4659   -6.7752    1.7906 H   0  0
   33.9127   -5.4189   -1.4794 H   0  0
   31.9876   -4.2777   -2.4569 H   0  0
   36.0971   -9.5776    0.8964 H   0  0
   37.1263   -8.3006    2.7267 H   0  0
   36.1914   -6.1004    3.3913 H   0  0
   34.2297   -5.1818    2.2178 H   0  0
   33.5513  -11.2832   -1.7874 H   0  0
   35.1559  -11.2505   -2.5454 H   0  0
   33.9663  -10.0144   -2.9979 H   0  0
  1  2  2  0
  1 33  1  0
  2  3  1  0
  2 34  1  0
  3  6  2  0
  3 35  1  0
  4  1  1  0
  4 26  1  0
  5  4  2  0
  5  6  1  0
  6  7  1  0
  7  8  1  0
  7 13  1  0
  8  9  2  0
  8 10  1  0
  9  5  1  0
 10 11  1  0
 10 36  1  0
 10 37  1  0
 11 12  1  0
 11 38  1  0
 11 39  1  0
 12 40  1  0
 12 41  1  0
 12 42  1  0
 13 14  1  0
 13 43  1  0
 13 44  1  0
 14 15  2  0
 15 16  1  0
 15 45  1  0
 16 17  2  0
 16 46  1  0
 17 18  1  0
 17 20  1  0
 18 19  2  0
 18 47  1  0
 19 14  1  0
 19 48  1  0
 20 21  2  0
 21 22  1  0
 21 29  1  0
 22 23  2  0
 22 49  1  0
 23 24  1  0
 23 50  1  0
 24 25  2  0
 24 51  1  0
 25 20  1  0
 25 52  1  0
 26 27  2  0
 26 28  1  0
 29 30  2  0
 29 31  1  0
 31 32  1  0
 32 53  1  0
 32 54  1  0
 32 55  1  0
M  CHG  2  26   1  28  -1
M  END
> <Name>
CHEMBL4860127

> <Clean Energy>
62.068199

> <chembl_id>
CHEMBL4860127

> <chembl_pref_name>
None

> <efficacy>
0.142450142

> <Forcefield>
MMFF

> <ForcefieldBase>
MMFF

> <ForcefieldFFML>
<?xml version="1.0" encoding="UTF-8"?>
<!DOCTYPE ffml SYSTEM "Ffml.dtd">
<ffml version="1.0">
<forcefield name="MMFF" derivedFrom="MMFF" base="MMFF">
<atomTypes>
<atomType
name="C100"
element="C"
mass="12.011"
annotation=""/>
<atomType
name="N101"
element="N"
mass="14.007"
annotation=""/>
<atomType
name="O102"
element="O"
mass="16"
annotation=""/>
<atomType
name="H103"
element="H"
mass="1.008"
annotation=""/>
</atomTypes>
<parameters>
</parameters>
</forcefield>
</ffml>

> <Initial Potential Energy>
328.12666

> <Initial RMS Gradient>
40.61208

> <Minimization Criteria>
STEEPD> Minimization exiting with gradient tolerance ( 3.0000000) satisfied.

> <CHARMm Energy>
114.82468

> <Potential Energy>
114.82468

> <RMS Gradient>
0.18982

> <Bond Energy>
7.83212

> <Angle Energy>
12.12257

> <STRBend>
0.39288

> <Dihedral Energy>
9.65782

> <OOPLane>
0.35802

> <Van der Waals Energy>
59.54127

> <Electrostatic Energy>
24.92

> <Hydrogen Bond Energy>
0

> <Solvation Free Energy>
0

> <HasGasteigerCharges>
true

> <REMARK99>
REMARK  99  MacroMolecule created from Mol2 file
REMARK  99  CHEMBL4860127
REMARK  99  PROTEIN
REMARK  99  GASTEIGER
REMARK  99
REMARK  99

$$$$
CHEMBL683
  SciTegic05292516403D

 25 25  0  0  0  0            999 V2000
    2.0898    0.5627    0.1517 C   0  0
    3.4815   -0.1156    0.1435 C   0  0
    1.1631   -0.5347    0.0167 O   0  0
    4.5463    0.4797    0.2389 O   0  0
   -0.1903   -0.4081   -0.0373 C   0  0
    3.4272   -1.4664    0.0182 O   0  0
   -2.9917   -0.5054   -0.1838 C   0  0
   -4.7076   -0.5563   -0.2729 Cl  0  0
   -0.9402    0.7615    0.0431 C   0  0
   -0.8620   -1.6286   -0.1912 C   0  0
   -2.3392    0.7144   -0.0301 C   0  0
   -2.2565   -1.6818   -0.2649 C   0  0
    2.0744    1.5025   -1.0566 C   0  0
    1.9757    1.2678    1.5056 C   0  0
    2.4867   -1.7435   -0.0427 H   0  0
   -0.4901    1.7382    0.1635 H   0  0
   -0.2972   -2.5562   -0.2558 H   0  0
   -2.9115    1.6368    0.0340 H   0  0
   -2.7560   -2.6393   -0.3848 H   0  0
    1.1661    2.1051   -1.1146 H   0  0
    2.1335    0.9307   -1.9902 H   0  0
    2.9200    2.1993   -1.0349 H   0  0
    1.0566    1.8478    1.6068 H   0  0
    2.8106    1.9582    1.6709 H   0  0
    1.9775    0.5362    2.3222 H   0  0
  2  1  1  0
  3  1  1  0
  4  2  2  0
  5  3  1  0
  6  2  1  0
  6 15  1  0
  7 12  1  0
  8  7  1  0
  9  5  2  0
  9 16  1  0
 10  5  1  0
 10 17  1  0
 11  7  2  0
 11  9  1  0
 11 18  1  0
 12 10  2  0
 12 19  1  0
 13  1  1  0
 13 20  1  0
 13 21  1  0
 13 22  1  0
 14  1  1  0
 14 23  1  0
 14 24  1  0
 14 25  1  0
M  END
> <Name>
CHEMBL683

> <Clean Energy>
19.530701

> <chembl_id>
CHEMBL683

> <chembl_pref_name>
CLOFIBRIC ACID

> <efficacy>
0.31

> <Forcefield>
MMFF

> <ForcefieldBase>
MMFF

> <ForcefieldFFML>
<?xml version="1.0" encoding="UTF-8"?>
<!DOCTYPE ffml SYSTEM "Ffml.dtd">
<ffml version="1.0">
<forcefield name="MMFF" derivedFrom="MMFF" base="MMFF">
<atomTypes>
<atomType
name="C100"
element="C"
mass="12.011"
annotation=""/>
<atomType
name="O101"
element="O"
mass="16"
annotation=""/>
<atomType
name="Cl102"
element="Cl"
mass="35.453"
annotation=""/>
<atomType
name="H103"
element="H"
mass="1.008"
annotation=""/>
</atomTypes>
<parameters>
</parameters>
</forcefield>
</ffml>

> <Initial Potential Energy>
75.8996

> <Initial RMS Gradient>
26.75487

> <Minimization Criteria>
CONJUG> Minimization exiting with gradient tolerance ( 0.0100000) satisfied.

> <CHARMm Energy>
38.02293

> <Potential Energy>
38.02293

> <RMS Gradient>
0.0099

> <Bond Energy>
2.63685

> <Angle Energy>
15.2095

> <STRBend>
0.25779

> <Dihedral Energy>
1.14099

> <OOPLane>
1e-005

> <Van der Waals Energy>
26.48902

> <Electrostatic Energy>
-7.71123

> <Hydrogen Bond Energy>
0

> <Solvation Free Energy>
0

> <HasGasteigerCharges>
true

> <REMARK99>
REMARK  99  MacroMolecule created from Mol2 file
REMARK  99  CHEMBL683
REMARK  99  PROTEIN
REMARK  99  GASTEIGER
REMARK  99
REMARK  99

$$$$
CHEMBL1017
  SciTegic05292516403D

 69 74  0  0  0  0            999 V2000
   -2.8686   -5.8006    0.1258 C   0  0
    1.8795   -4.4666    1.0338 N   0  0
    1.7350   -2.6330   -0.2060 N   0  0
   -3.8087   -5.7225    1.0481 N   0  0
   -3.1589   -6.7984   -0.7825 N   0  0
    0.5895   -4.4448    0.5391 C   0  0
    2.5428   -3.3636    0.5361 C   0  0
    0.5253   -3.2723   -0.2103 C   0  0
   -1.6982   -4.9358    0.0395 C   0  0
   -4.3577   -7.3683   -0.4291 C   0  0
   -4.7397   -6.6703    0.7135 C   0  0
   -0.5093   -5.3013    0.6870 C   0  0
    6.9776   -9.3707   -0.8947 C   0  0
   -0.6770   -2.8844   -0.8361 C   0  0
    6.0383   -9.5496    0.1385 C   0  0
    7.1794   -8.0636   -1.5462 C   0  0
   -1.7806   -3.7454   -0.6943 C   0  0
    2.3889   -5.4131    2.0190 C   0  0
    5.1283   -8.4846    0.5932 C   0  0
    6.9197   -7.8504   -2.7164 O   0  0
    4.1563   -7.9480   -0.2652 C   0  0
    5.1848   -7.9980    1.9063 C   0  0
    3.3433   -6.4516    1.4750 C   0  0
   -2.3487   -7.1482   -1.9247 C   0  0
    7.7738   -7.1756   -0.7216 O   0  0
    3.9756   -3.0289    0.8030 C   0  0
    4.3054   -6.9988    2.3402 C   0  0
    3.2683   -6.9552    0.1708 C   0  0
   -5.1378   -8.3903   -0.9820 C   0  0
   -5.9480   -6.9874    1.3486 C   0  0
    7.7783  -10.4290   -1.3465 C   0  0
    5.9615  -10.8266    0.7282 C   0  0
   -0.8284   -1.6125   -1.6212 C   0  0
    4.8653   -3.4234   -0.3765 C   0  0
   -6.3441   -8.6884   -0.3385 C   0  0
    7.6744  -11.6839   -0.7506 C   0  0
    6.7718  -11.8798    0.2916 C   0  0
   -6.7455   -8.0004    0.8069 C   0  0
    6.3252   -3.0936   -0.1089 C   0  0
   -0.4600   -6.2064    1.2832 H   0  0
   -2.7262   -3.4717   -1.1623 H   0  0
    2.8653   -4.8170    2.8063 H   0  0
    1.5373   -5.9230    2.4816 H   0  0
    4.0728   -8.3056   -1.2918 H   0  0
    5.9135   -8.3989    2.6093 H   0  0
   -2.7617   -8.0248   -2.4270 H   0  0
   -1.3372   -7.3793   -1.5807 H   0  0
   -2.3382   -6.3019   -2.6165 H   0  0
    8.1122   -7.5637    0.1108 H   0  0
    4.0504   -1.9466    0.9689 H   0  0
    4.3340   -3.5044    1.7212 H   0  0
    4.3706   -6.6569    3.3719 H   0  0
    2.5312   -6.5785   -0.5362 H   0  0
   -4.8393   -8.9299   -1.8744 H   0  0
   -6.2527   -6.4482    2.2381 H   0  0
    8.4843  -10.2706   -2.1601 H   0  0
    5.2384  -11.0134    1.5222 H   0  0
   -1.1117   -1.8389   -2.6542 H   0  0
    0.1062   -1.0433   -1.6429 H   0  0
   -1.5985   -0.9798   -1.1693 H   0  0
    4.7761   -4.4961   -0.5811 H   0  0
    4.5377   -2.9016   -1.2843 H   0  0
   -6.9788   -9.4713   -0.7439 H   0  0
    8.2948  -12.5065   -1.0992 H   0  0
    6.6893  -12.8576    0.7601 H   0  0
   -7.6869   -8.2486    1.2873 H   0  0
    6.9396   -3.3727   -0.9706 H   0  0
    6.6966   -3.6396    0.7645 H   0  0
    6.4589   -2.0218    0.0711 H   0  0
  2  6  1  0
  3  7  2  0
  3  8  1  0
  4  1  2  0
  5  1  1  0
  6 12  2  0
  7  2  1  0
  8  6  1  0
  8 14  2  0
  9  1  1  0
 10  5  1  0
 10 11  2  0
 11  4  1  0
 12  9  1  0
 12 40  1  0
 13 15  1  0
 14 17  1  0
 15 19  1  0
 16 13  1  0
 17  9  2  0
 17 41  1  0
 18  2  1  0
 18 42  1  0
 18 43  1  0
 19 21  2  0
 19 22  1  0
 20 16  2  0
 21 28  1  0
 21 44  1  0
 22 27  2  0
 22 45  1  0
 23 18  1  0
 24  5  1  0
 24 46  1  0
 24 47  1  0
 24 48  1  0
 25 16  1  0
 25 49  1  0
 26  7  1  0
 26 50  1  0
 26 51  1  0
 27 23  1  0
 27 52  1  0
 28 23  2  0
 28 53  1  0
 29 10  1  0
 29 54  1  0
 30 11  1  0
 30 55  1  0
 31 13  2  0
 31 56  1  0
 32 15  2  0
 32 57  1  0
 33 14  1  0
 33 58  1  0
 33 59  1  0
 33 60  1  0
 34 26  1  0
 34 61  1  0
 34 62  1  0
 35 29  2  0
 35 38  1  0
 35 63  1  0
 36 31  1  0
 36 37  2  0
 36 64  1  0
 37 32  1  0
 37 65  1  0
 38 30  2  0
 38 66  1  0
 39 34  1  0
 39 67  1  0
 39 68  1  0
 39 69  1  0
M  END
> <Name>
CHEMBL1017

> <Clean Energy>
79.577003

> <chembl_id>
CHEMBL1017

> <chembl_pref_name>
TELMISARTAN

> <efficacy>
0.431625941

> <Forcefield>
MMFF

> <ForcefieldBase>
MMFF

> <ForcefieldFFML>
<?xml version="1.0" encoding="UTF-8"?>
<!DOCTYPE ffml SYSTEM "Ffml.dtd">
<ffml version="1.0">
<forcefield name="MMFF" derivedFrom="MMFF" base="MMFF">
<atomTypes>
<atomType
name="C100"
element="C"
mass="12.011"
annotation=""/>
<atomType
name="N101"
element="N"
mass="14.007"
annotation=""/>
<atomType
name="O102"
element="O"
mass="16"
annotation=""/>
<atomType
name="H103"
element="H"
mass="1.008"
annotation=""/>
</atomTypes>
<parameters>
</parameters>
</forcefield>
</ffml>

> <Initial Potential Energy>
349.8366

> <Initial RMS Gradient>
62.3151

> <Minimization Criteria>
STEEPD> Minimization exiting with gradient tolerance ( 3.0000000) satisfied.

> <CHARMm Energy>
95.85627

> <Potential Energy>
95.85627

> <RMS Gradient>
0.12617

> <Bond Energy>
8.68326

> <Angle Energy>
9.78035

> <STRBend>
-1.0669

> <Dihedral Energy>
15.79843

> <OOPLane>
0.2216

> <Van der Waals Energy>
69.25934

> <Electrostatic Energy>
-6.81979

> <Hydrogen Bond Energy>
0

> <Solvation Free Energy>
0

> <HasGasteigerCharges>
true

> <REMARK99>
REMARK  99  MacroMolecule created from Mol2 file
REMARK  99  CHEMBL1017
REMARK  99  PROTEIN
REMARK  99  GASTEIGER
REMARK  99
REMARK  99

$$$$
CHEMBL361773
  SciTegic05292516403D

 39 40  0  0  0  0            999 V2000
    5.1276    1.0567   -0.7687 C   0  0
    4.4785    1.6199    0.2687 C   0  0
    3.0817    1.3244    0.4916 C   0  0
    4.4187    0.1350   -1.6852 C   0  0
    2.4324    0.5037   -0.3440 C   0  0
    3.0946   -0.1017   -1.4358 O   0  0
    5.1645    2.5577    1.2200 S   0  3
    6.5015    1.3185   -1.0238 C   0  0
    7.6235    1.5734   -1.1777 N   0  0
    1.0120    0.1340   -0.2017 C   0  0
   -5.6777   -3.4688   -0.3389 S   0  3
    4.9886   -0.4010   -2.6299 O   0  0
    5.2341    2.0167    2.6299 O   0  5
   -5.1542   -4.6380    0.4681 O   0  5
    0.0518    1.0519    0.2437 C   0  0
    0.5838   -1.1576   -0.5417 C   0  0
   -5.0382   -2.1498    0.0761 C   0  0
   -1.7059   -0.6119    0.0293 C   0  0
   -0.7621   -1.5302   -0.4245 C   0  0
   -1.2914    0.6786    0.3606 C   0  0
   -3.5289   -2.1385   -0.1611 C   0  0
   -3.0436   -0.8414    0.1901 O   0  0
    4.6784    3.9936    1.1775 C   0  0
   -7.1930   -3.4191   -0.2743 C   0  0
    2.5853    1.7685    1.3499 H   0  0
    0.3257    2.0742    0.4922 H   0  0
    1.2975   -1.8974   -0.9003 H   0  0
   -5.4817   -1.3273   -0.4998 H   0  0
   -5.2491   -1.9273    1.1299 H   0  0
   -1.0340   -2.5442   -0.6984 H   0  0
   -2.0234    1.4045    0.7072 H   0  0
   -3.0462   -2.8961    0.4671 H   0  0
   -3.3264   -2.3420   -1.2196 H   0  0
    3.6663    4.0966    1.5822 H   0  0
    4.6796    4.3748    0.1505 H   0  0
    5.3482    4.6380    1.7565 H   0  0
   -7.5485   -3.2406    0.7457 H   0  0
   -7.6235   -4.3597   -0.6335 H   0  0
   -7.5795   -2.6248   -0.9213 H   0  0
  2  1  2  0
  4  1  1  0
  8  1  1  0
  3  2  1  0
  7  2  1  0
  3  5  2  0
  3 25  1  0
  6  4  1  0
 12  4  2  0
  5  6  1  0
 10  5  1  0
 13  7  1  0
 23  7  1  0
  9  8  3  0
 15 10  1  0
 16 10  2  0
 14 11  1  0
 11 17  1  0
 24 11  1  0
 20 15  2  0
 15 26  1  0
 19 16  1  0
 16 27  1  0
 17 21  1  0
 17 28  1  0
 17 29  1  0
 18 19  2  0
 18 20  1  0
 22 18  1  0
 19 30  1  0
 20 31  1  0
 21 22  1  0
 21 32  1  0
 21 33  1  0
 23 34  1  0
 23 35  1  0
 23 36  1  0
 24 37  1  0
 24 38  1  0
 24 39  1  0
M  CHG  4   7   1  11   1  13  -1  14  -1
M  END
> <Name>
CHEMBL361773

> <Clean Energy>
32.9919

> <chembl_id>
CHEMBL361773

> <chembl_pref_name>
None

> <efficacy>
0.27

> <REMARK99>
REMARK  99  MacroMolecule created from Mol2 file
REMARK  99  CHEMBL361773
REMARK  99  PROTEIN
REMARK  99  USER_CHARGES
REMARK  99
REMARK  99

> <Forcefield>
MMFF

> <ForcefieldBase>
MMFF

> <ForcefieldFFML>
<?xml version="1.0" encoding="UTF-8"?>
<!DOCTYPE ffml SYSTEM "Ffml.dtd">
<ffml version="1.0">
<forcefield name="MMFF" derivedFrom="MMFF" base="MMFF">
<atomTypes>
<atomType
name="C100"
element="C"
mass="12.011"
annotation=""/>
<atomType
name="O101"
element="O"
mass="16"
annotation=""/>
<atomType
name="S102"
element="S"
mass="32.066"
annotation=""/>
<atomType
name="N103"
element="N"
mass="14.007"
annotation=""/>
<atomType
name="H104"
element="H"
mass="1.008"
annotation=""/>
</atomTypes>
<parameters>
</parameters>
</forcefield>
</ffml>

$$$$
CHEMBL1819483
  SciTegic05292516403D

 73 75  0  0  0  0            999 V2000
   14.9882   -8.9234   -1.2947 C   0  0
   14.1845  -10.2178   -1.3394 C   0  0
   14.7640  -11.2662   -0.3967 C   0  0
   16.2464  -11.5182   -0.6672 C   0  0
   17.0672  -10.2187   -0.6234 C   0  0
   16.4669   -9.1724   -1.5785 C   0  0
   18.5480  -10.4499   -0.9710 C   0  0
   19.2793  -11.3456    0.0298 C   0  0
   20.6593  -11.3817   -0.3504 O   0  0
   21.5335  -11.5994    0.6812 C   0  0
   21.3772  -12.5430    1.7018 C   0  0
   22.3427  -12.6560    2.7061 C   0  0
   23.5019  -11.8817    2.6538 C   0  0
   23.7047  -10.9813    1.6010 C   0  0
   22.7076  -10.8409    0.6249 C   0  0
   24.9864  -10.1867    1.5075 C   0  0
   26.1814  -11.0338    1.0238 C   0  0  2  0  0  0
   27.4471  -10.2486    1.3082 C   0  0
   28.4647  -11.0064    1.7800 O   0  0
   27.5722   -9.0470    1.1232 O   0  0
   26.0940  -11.3607   -0.4773 C   0  0
   27.1725  -12.3494   -0.9355 C   0  0
   26.9816  -12.7374   -2.4022 C   0  0
   28.0551  -13.7099   -2.8637 C   0  0
   20.2769  -13.3598    1.7402 O   0  0
   20.6455  -14.7161    1.4439 C   0  0
   19.3919  -15.4703    1.0039 C   0  0
   19.6809  -16.9191    0.6989 C   0  0
   19.4121  -17.9157    1.6445 C   0  0
   19.7389  -19.2449    1.3751 C   0  0
   20.3216  -19.5913    0.1571 C   0  0
   20.5807  -18.6101   -0.7964 C   0  0
   20.2692  -17.2783   -0.5238 C   0  0
   14.5868   -8.2145   -2.0277 H   0  0
   14.8791   -8.4580   -0.3074 H   0  0
   13.1420  -10.0151   -1.0699 H   0  0
   14.1798  -10.6100   -2.3637 H   0  0
   14.6362  -10.9340    0.6412 H   0  0
   14.2065  -12.2038   -0.5021 H   0  0
   16.6160  -12.2306    0.0783 H   0  0
   16.3591  -11.9958   -1.6488 H   0  0
   17.0142   -9.8133    0.3966 H   0  0
   16.5829   -9.5069   -2.6175 H   0  0
   17.0132   -8.2258   -1.4864 H   0  0
   18.6431  -10.8795   -1.9770 H   0  0
   19.0687   -9.4841   -1.0160 H   0  0
   19.1509  -10.9397    1.0413 H   0  0
   18.8756  -12.3606   -0.0223 H   0  0
   22.1995  -13.3527    3.5271 H   0  0
   24.2478  -11.9912    3.4375 H   0  0
   22.8393  -10.1325   -0.1918 H   0  0
   24.8422   -9.3195    0.8492 H   0  0
   25.1958   -9.7653    2.5004 H   0  0
   26.2053  -11.9648    1.6037 H   0  0
   28.2487  -11.9563    1.8525 H   0  0
   25.1138  -11.7950   -0.7040 H   0  0
   26.1775  -10.4390   -1.0670 H   0  0
   28.1668  -11.9067   -0.8078 H   0  0
   27.1336  -13.2501   -0.3111 H   0  0
   25.9965  -13.1982   -2.5398 H   0  0
   27.0116  -11.8408   -3.0322 H   0  0
   27.8962  -13.9802   -3.9123 H   0  0
   28.0339  -14.6288   -2.2692 H   0  0
   29.0512  -13.2648   -2.7736 H   0  0
   21.4001  -14.7515    0.6460 H   0  0
   21.0649  -15.1817    2.3447 H   0  0
   18.6195  -15.3911    1.7799 H   0  0
   18.9538  -14.9880    0.1205 H   0  0
   18.9305  -17.6759    2.5906 H   0  0
   19.5138  -20.0209    2.1049 H   0  0
   20.5463  -20.6345   -0.0575 H   0  0
   21.0124  -18.8911   -1.7539 H   0  0
   20.5023  -16.5132   -1.2634 H   0  0
  1  2  1  0
  1  6  1  0
  1 34  1  0
  1 35  1  0
  2  3  1  0
  2 36  1  0
  2 37  1  0
  3  4  1  0
  3 38  1  0
  3 39  1  0
  4  5  1  0
  4 40  1  0
  4 41  1  0
  5  6  1  0
  5  7  1  0
  5 42  1  0
  6 43  1  0
  6 44  1  0
  7  8  1  0
  7 45  1  0
  7 46  1  0
  8  9  1  0
  8 47  1  0
  8 48  1  0
  9 10  1  0
 10 11  1  0
 11 12  2  0
 11 25  1  0
 12 13  1  0
 12 49  1  0
 13 14  2  0
 13 50  1  0
 14 15  1  0
 14 16  1  0
 15 10  2  0
 15 51  1  0
 16 17  1  0
 16 52  1  0
 16 53  1  0
 17 18  1  0
 17 21  1  0
 17 54  1  0
 18 19  1  0
 18 20  2  0
 19 55  1  0
 21 22  1  0
 21 56  1  0
 21 57  1  0
 22 23  1  0
 22 58  1  0
 22 59  1  0
 23 24  1  0
 23 60  1  0
 23 61  1  0
 24 62  1  0
 24 63  1  0
 24 64  1  0
 25 26  1  0
 26 27  1  0
 26 65  1  0
 26 66  1  0
 27 28  1  0
 27 67  1  0
 27 68  1  0
 28 29  2  0
 28 33  1  0
 29 30  1  0
 29 69  1  0
 30 31  2  0
 30 70  1  0
 31 32  1  0
 31 71  1  0
 32 33  2  0
 32 72  1  0
 33 73  1  0
M  END
> <Name>
CHEMBL1819483

> <Clean Energy>
13.0862

> <chembl_id>
CHEMBL1819483

> <chembl_pref_name>
None

> <efficacy>
1.215574549

> <Forcefield>
MMFF

> <ForcefieldBase>
MMFF

> <ForcefieldFFML>
<?xml version="1.0" encoding="UTF-8"?>
<!DOCTYPE ffml SYSTEM "Ffml.dtd">
<ffml version="1.0">
<forcefield name="MMFF" derivedFrom="MMFF" base="MMFF">
<atomTypes>
<atomType
name="C100"
element="C"
mass="12.011"
annotation=""/>
<atomType
name="O101"
element="O"
mass="16"
annotation=""/>
<atomType
name="H102"
element="H"
mass="1.008"
annotation=""/>
</atomTypes>
<parameters>
</parameters>
</forcefield>
</ffml>

> <Initial Potential Energy>
131.98435

> <Initial RMS Gradient>
22.68509

> <Minimization Criteria>
STEEPD> Minimization exiting with gradient tolerance ( 3.0000000) satisfied.

> <CHARMm Energy>
44.18898

> <Potential Energy>
44.18898

> <RMS Gradient>
0.06233

> <Bond Energy>
6.01403

> <Angle Energy>
11.62336

> <STRBend>
0.29157

> <Dihedral Energy>
-5.17122

> <OOPLane>
0.05805

> <Van der Waals Energy>
59.75286

> <Electrostatic Energy>
-28.37967

> <Hydrogen Bond Energy>
0

> <Solvation Free Energy>
0

> <HasGasteigerCharges>
true

> <REMARK99>
REMARK  99  MacroMolecule created from Mol2 file
REMARK  99  CHEMBL1819483
REMARK  99  PROTEIN
REMARK  99  GASTEIGER
REMARK  99
REMARK  99

$$$$
CHEMBL394968
  SciTegic05292516403D

 69 72  0  0  0  0            999 V2000
    3.4697   -7.4237   -0.5088 C   0  0
    4.7032   -6.8543   -0.1842 C   0  0
    4.8812   -5.4621   -0.2060 C   0  0
    3.7929   -4.6538   -0.5658 C   0  0
    2.5581   -5.2221   -0.8893 C   0  0
    2.3985   -6.6058   -0.8593 C   0  0
    6.1749   -4.8943    0.1580 C   0  0
    7.2801   -5.5031    0.5536 N   0  0
    8.1740   -4.4785    0.8068 C   0  0
    7.5658   -3.2718    0.5300 C   0  0
    6.2979   -3.5290    0.0951 O   0  0
    7.9556   -1.8545    0.6274 C   0  0
    9.5198   -4.7466    1.3844 C   0  0
   10.6969   -4.4391    0.4499 C   0  0
   11.8946   -4.4979    1.2355 O   0  0
   13.0765   -4.1461    0.6466 C   0  0
   14.1467   -3.9852    1.5320 C   0  0
   15.4194   -3.6310    1.0703 C   0  0
   15.6501   -3.4480   -0.2982 C   0  0
   14.5722   -3.6111   -1.1834 C   0  0
   13.2955   -3.9592   -0.7158 C   0  0
   17.0249   -3.0653   -0.8172 C   0  0
   18.0792   -4.0630   -0.4993 N   0  0
   17.8391   -5.3200   -1.2771 C   0  0
   18.3958   -6.5031   -0.4909 C   0  0
   18.8569   -7.5165   -0.9910 O   0  0
   18.3715   -6.2822    0.8497 O   0  0
   19.4058   -3.4701   -0.8177 C   0  0
   20.6356   -4.3507   -0.5263 C   0  0
   21.8318   -3.5857   -0.6558 O   0  0
   22.2562   -3.0264    0.5866 C   0  0
   23.5515   -2.2861    0.3788 C   0  0
   24.6628   -2.9375   -0.1778 C   0  0
   25.8765   -2.2657   -0.3386 C   0  0
   25.9945   -0.9349    0.0568 C   0  0
   24.8945   -0.2775    0.6076 C   0  0
   23.6805   -0.9485    0.7716 C   0  0
    3.3484   -8.5034   -0.4851 H   0  0
    5.5345   -7.5016    0.0923 H   0  0
    3.8975   -3.5711   -0.5917 H   0  0
    1.7231   -4.5824   -1.1608 H   0  0
    1.4379   -7.0478   -1.1075 H   0  0
    7.1525   -1.2607    1.0746 H   0  0
    8.1714   -1.4516   -0.3666 H   0  0
    8.8494   -1.7334    1.2472 H   0  0
    9.6286   -4.1606    2.3066 H   0  0
    9.5858   -5.7946    1.7034 H   0  0
   10.7335   -5.1826   -0.3552 H   0  0
   10.5891   -3.4365    0.0184 H   0  0
   13.9858   -4.1318    2.5976 H   0  0
   16.2254   -3.4969    1.7889 H   0  0
   14.7208   -3.4744   -2.2528 H   0  0
   12.5013   -4.0877   -1.4432 H   0  0
   16.9873   -2.8834   -1.8997 H   0  0
   17.2711   -2.1030   -0.3488 H   0  0
   16.7744   -5.5381   -1.4063 H   0  0
   18.3045   -5.2741   -2.2675 H   0  0
   17.9465   -5.4010    0.9795 H   0  0
   19.4463   -3.1559   -1.8700 H   0  0
   19.5126   -2.5472   -0.2340 H   0  0
   20.5790   -4.8097    0.4670 H   0  0
   20.6975   -5.1556   -1.2656 H   0  0
   21.4825   -2.3513    0.9679 H   0  0
   22.4208   -3.8214    1.3241 H   0  0
   24.5781   -3.9754   -0.4941 H   0  0
   26.7263   -2.7834   -0.7747 H   0  0
   26.9411   -0.4135   -0.0662 H   0  0
   24.9747    0.7607    0.9126 H   0  0
   22.8374   -0.4180    1.2078 H   0  0
  1  2  2  0
  1 38  1  0
  2  3  1  0
  2 39  1  0
  3  4  2  0
  3  7  1  0
  4  5  1  0
  4 40  1  0
  5  6  2  0
  5 41  1  0
  6  1  1  0
  6 42  1  0
  7  8  2  0
  8  9  1  0
  9 10  2  0
  9 13  1  0
 10 11  1  0
 10 12  1  0
 11  7  1  0
 12 43  1  0
 12 44  1  0
 12 45  1  0
 13 14  1  0
 13 46  1  0
 13 47  1  0
 14 15  1  0
 14 48  1  0
 14 49  1  0
 15 16  1  0
 16 17  2  0
 17 18  1  0
 17 50  1  0
 18 19  2  0
 18 51  1  0
 19 20  1  0
 19 22  1  0
 20 21  2  0
 20 52  1  0
 21 16  1  0
 21 53  1  0
 22 23  1  0
 22 54  1  0
 22 55  1  0
 23 24  1  0
 23 28  1  0
 24 25  1  0
 24 56  1  0
 24 57  1  0
 25 26  2  0
 25 27  1  0
 27 58  1  0
 28 29  1  0
 28 59  1  0
 28 60  1  0
 29 30  1  0
 29 61  1  0
 29 62  1  0
 30 31  1  0
 31 32  1  0
 31 63  1  0
 31 64  1  0
 32 33  2  0
 33 34  1  0
 33 65  1  0
 34 35  2  0
 34 66  1  0
 35 36  1  0
 35 67  1  0
 36 37  2  0
 36 68  1  0
 37 32  1  0
 37 69  1  0
M  END
> <Name>
CHEMBL394968

> <Clean Energy>
39.886902

> <chembl_id>
CHEMBL394968

> <chembl_pref_name>
None

> <efficacy>
0.975

> <Forcefield>
MMFF

> <ForcefieldBase>
MMFF

> <ForcefieldFFML>
<?xml version="1.0" encoding="UTF-8"?>
<!DOCTYPE ffml SYSTEM "Ffml.dtd">
<ffml version="1.0">
<forcefield name="MMFF" derivedFrom="MMFF" base="MMFF">
<atomTypes>
<atomType
name="C100"
element="C"
mass="12.011"
annotation=""/>
<atomType
name="N101"
element="N"
mass="14.007"
annotation=""/>
<atomType
name="O102"
element="O"
mass="16"
annotation=""/>
<atomType
name="H103"
element="H"
mass="1.008"
annotation=""/>
</atomTypes>
<parameters>
</parameters>
</forcefield>
</ffml>

> <Initial Potential Energy>
231.5948

> <Initial RMS Gradient>
27.43557

> <Minimization Criteria>
STEEPD> Minimization exiting with gradient tolerance ( 3.0000000) satisfied.

> <CHARMm Energy>
124.57442

> <Potential Energy>
124.57442

> <RMS Gradient>
0.10808

> <Bond Energy>
7.88534

> <Angle Energy>
14.2442

> <STRBend>
0.9884

> <Dihedral Energy>
-0.89023

> <OOPLane>
0.10225

> <Van der Waals Energy>
68.02576

> <Electrostatic Energy>
34.2187

> <Hydrogen Bond Energy>
0

> <Solvation Free Energy>
0

> <HasGasteigerCharges>
true

> <REMARK99>
REMARK  99  MacroMolecule created from Mol2 file
REMARK  99  CHEMBL394968
REMARK  99  PROTEIN
REMARK  99  GASTEIGER
REMARK  99
REMARK  99

$$$$
CHEMBL246473
  SciTegic05292516403D

 65 68  0  0  0  0            999 V2000
    6.9028    0.2671   -0.5466 O   0  0
    8.2390    0.4374   -0.7629 C   0  0
    8.5429    1.7635   -0.5334 C   0  0
    7.3829    2.4373   -0.1927 N   0  0
    6.4359    1.5158   -0.2217 C   0  0
    5.0044    1.6467    0.0278 C   0  0
    4.4606    2.9099    0.3092 C   0  0
    3.0922    3.0658    0.5430 C   0  0
    2.2506    1.9572    0.4996 C   0  0
    2.7731    0.6955    0.2233 C   0  0
    4.1418    0.5412   -0.0111 C   0  0
    8.9961   -0.7551   -1.1800 C   0  0
    9.8411    2.4829   -0.6772 C   0  0
   10.9532    1.9905    0.2566 C   0  0
   12.1587    2.6984   -0.0708 O   0  0
   13.3156    2.3486    0.5816 C   0  0
   13.4212    1.4005    1.5977 C   0  0
   14.6603    1.1429    2.1952 C   0  0
   15.8033    1.8294    1.7853 C   0  0
   15.7305    2.7791    0.7582 C   0  0
   14.4741    3.0330    0.1696 C   0  0
   16.9806    3.5398    0.3374 C   0  0
   18.0854    2.6430   -0.0992 N   0  0
   19.3645    3.4073   -0.0950 C   0  0
   17.7658    2.1085   -1.4639 C   0  0
   18.3063    0.6870   -1.5883 C   0  0
   18.5952    0.1381   -2.6414 O   0  0
   18.4827    0.0978   -0.3754 O   0  0
   20.6251    2.5656   -0.3725 C   0  0
   21.8917    3.3622   -0.1613 C   0  0
   22.5156    3.3841    1.0948 C   0  0
   23.6815    4.1256    1.2955 C   0  0
   24.2335    4.8548    0.2449 C   0  0
   23.6234    4.8405   -1.0077 C   0  0
   22.4574    4.0990   -1.2109 C   0  0
    5.1111    3.7830    0.3446 H   0  0
    2.6865    4.0509    0.7584 H   0  0
    1.1866    2.0777    0.6812 H   0  0
    2.1179   -0.1705    0.1893 H   0  0
    4.5308   -0.4520   -0.2253 H   0  0
    9.3667   -1.2950   -0.3036 H   0  0
    9.8534   -0.4766   -1.8004 H   0  0
    8.3674   -1.4357   -1.7626 H   0  0
   10.1806    2.3976   -1.7176 H   0  0
    9.6891    3.5571   -0.5114 H   0  0
   10.6766    2.1862    1.2996 H   0  0
   11.1088    0.9147    0.1144 H   0  0
   12.5621    0.8480    1.9596 H   0  0
   14.7319    0.4077    2.9934 H   0  0
   16.7518    1.6264    2.2801 H   0  0
   14.3790    3.7772   -0.6190 H   0  0
   16.7448    4.2723   -0.4459 H   0  0
   17.2895    4.1174    1.2191 H   0  0
   19.3108    4.2437   -0.8052 H   0  0
   19.4850    3.8551    0.9008 H   0  0
   16.6870    2.0238   -1.6335 H   0  0
   18.1919    2.7385   -2.2520 H   0  0
   18.1345    0.7511    0.2811 H   0  0
   20.6453    1.6886    0.2866 H   0  0
   20.6181    2.1814   -1.3991 H   0  0
   22.1029    2.8163    1.9256 H   0  0
   24.1602    4.1313    2.2714 H   0  0
   25.1413    5.4304    0.4016 H   0  0
   24.0570    5.4046   -1.8292 H   0  0
   22.0026    4.0949   -2.1990 H   0  0
  1  2  1  0
  2  3  2  0
  2 12  1  0
  3  4  1  0
  3 13  1  0
  4  5  2  0
  5  1  1  0
  5  6  1  0
  6  7  2  0
  7  8  1  0
  7 36  1  0
  8  9  2  0
  8 37  1  0
  9 10  1  0
  9 38  1  0
 10 11  2  0
 10 39  1  0
 11  6  1  0
 11 40  1  0
 12 41  1  0
 12 42  1  0
 12 43  1  0
 13 14  1  0
 13 44  1  0
 13 45  1  0
 14 15  1  0
 14 46  1  0
 14 47  1  0
 15 16  1  0
 16 17  2  0
 17 18  1  0
 17 48  1  0
 18 19  2  0
 18 49  1  0
 19 20  1  0
 19 50  1  0
 20 21  2  0
 20 22  1  0
 21 16  1  0
 21 51  1  0
 22 23  1  0
 22 52  1  0
 22 53  1  0
 23 24  1  0
 23 25  1  0
 24 29  1  0
 24 54  1  0
 24 55  1  0
 25 26  1  0
 25 56  1  0
 25 57  1  0
 26 27  2  0
 26 28  1  0
 28 58  1  0
 29 30  1  0
 29 59  1  0
 29 60  1  0
 30 31  2  0
 31 32  1  0
 31 61  1  0
 32 33  2  0
 32 62  1  0
 33 34  1  0
 33 63  1  0
 34 35  2  0
 34 64  1  0
 35 30  1  0
 35 65  1  0
M  END
> <Name>
CHEMBL246473

> <Clean Energy>
39.702202

> <chembl_id>
CHEMBL246473

> <chembl_pref_name>
None

> <efficacy>
1.145

> <Forcefield>
MMFF

> <ForcefieldBase>
MMFF

> <ForcefieldFFML>
<?xml version="1.0" encoding="UTF-8"?>
<!DOCTYPE ffml SYSTEM "Ffml.dtd">
<ffml version="1.0">
<forcefield name="MMFF" derivedFrom="MMFF" base="MMFF">
<atomTypes>
<atomType
name="O100"
element="O"
mass="16"
annotation=""/>
<atomType
name="C101"
element="C"
mass="12.011"
annotation=""/>
<atomType
name="N102"
element="N"
mass="14.007"
annotation=""/>
<atomType
name="H103"
element="H"
mass="1.008"
annotation=""/>
</atomTypes>
<parameters>
</parameters>
</forcefield>
</ffml>

> <Initial Potential Energy>
213.20119

> <Initial RMS Gradient>
28.67787

> <Minimization Criteria>
CONJUG> Minimization exiting with gradient tolerance ( 0.0100000) satisfied.

> <CHARMm Energy>
102.99997

> <Potential Energy>
102.99997

> <RMS Gradient>
0.00986

> <Bond Energy>
8.45982

> <Angle Energy>
12.8655

> <STRBend>
1.13293

> <Dihedral Energy>
-4.00941

> <OOPLane>
0.07592

> <Van der Waals Energy>
65.40007

> <Electrostatic Energy>
19.07513

> <Hydrogen Bond Energy>
0

> <Solvation Free Energy>
0

> <HasGasteigerCharges>
true

> <REMARK99>
REMARK  99  MacroMolecule created from Mol2 file
REMARK  99  CHEMBL246473
REMARK  99  PROTEIN
REMARK  99  GASTEIGER
REMARK  99
REMARK  99

$$$$
CHEMBL3393181
  SciTegic05292516403D

 56 59  0  0  0  0            999 V2000
    6.0491   -4.8084    0.1207 C   0  0
    3.5972   -4.7590   -0.4441 C   0  0
    9.9304   -0.5910    0.1621 O   0  0
    8.1927   -1.8449   -1.0096 C   0  0
    1.1173   -5.1438   -0.0950 C   0  0
    0.9486   -3.7416    0.0473 N   0  0
    8.7480   -0.8712    0.0008 C   0  0
    1.4867   -7.9098   -0.5338 C   0  0
    1.0058   -0.8455    0.3639 C   0  0
   -1.4816    0.4554    0.2920 C   0  0
    6.4366   -3.6034   -0.4712 C   0  0
    0.2374   -7.4132   -0.1817 C   0  0
   -0.3043    1.2153    0.2094 C   0  0
   -1.1181   -3.6180    1.0866 O   0  0
    2.5643   -7.0357   -0.6532 C   0  0
   -1.4143   -0.9394    0.4069 C   0  0
    8.7112   -3.9447    0.2883 C   0  0
    8.3313   -5.1456    0.8787 C   0  0
    7.7688   -3.1563   -0.3860 C   0  0
   -0.1688   -1.5964    0.4325 C   0  0
    7.0087   -5.5754    0.7930 C   0  0
   -0.1529   -3.0818    0.5531 C   0  0
    2.3955   -5.6576   -0.4089 C   0  0
    0.9324    0.5428    0.2471 C   0  0
    0.0478   -6.0436    0.0264 C   0  0
    3.4714   -3.6097   -0.8562 O   0  0
    7.7879   -0.3447    0.7937 O   0  0
    4.7424   -5.3336    0.0810 N   0  0
   -0.3262    2.6790    0.0809 C   0  0
    0.4263    3.4803    0.9603 C   0  0
    0.5001    4.8626    0.7968 C   0  0
   -0.1838    5.4619   -0.2520 C   0  0
   -0.9564    4.6936   -1.1191 C   0  0
   -1.0386    3.3114   -0.9487 C   0  0
    8.9597   -2.0352   -1.7698 H   0  0
    7.3598   -1.3597   -1.5321 H   0  0
    1.7389   -3.1929   -0.2897 H   0  0
    1.6134   -8.9751   -0.7194 H   0  0
    1.9892   -1.3030    0.4169 H   0  0
   -2.4592    0.9414    0.2806 H   0  0
    5.7134   -2.9939   -1.0045 H   0  0
   -0.6106   -8.0888   -0.0878 H   0  0
    3.5287   -7.4403   -0.9529 H   0  0
   -2.3413   -1.5120    0.4753 H   0  0
    9.7462   -3.6195    0.3651 H   0  0
    9.0616   -5.7470    1.4108 H   0  0
    6.7427   -6.5186    1.2635 H   0  0
    1.8611    1.1082    0.1776 H   0  0
   -0.9658   -5.7137    0.2520 H   0  0
    8.3042    0.1414    1.4704 H   0  0
    4.6249   -6.2216    0.5506 H   0  0
    0.9792    3.0184    1.7767 H   0  0
    1.1079    5.4587    1.4730 H   0  0
   -0.1346    6.5369   -0.3904 H   0  0
   -1.5004    5.1799   -1.9262 H   0  0
   -1.6533    2.7353   -1.6398 H   0  0
  1 21  1  0
  1 28  1  0
  2 23  1  0
  2 26  2  0
  2 28  1  0
  4 19  1  0
  4 35  1  0
  4 36  1  0
  5  6  1  0
  5 25  2  0
  6 37  1  0
  7  3  2  0
  7  4  1  0
  7 27  1  0
  8 15  1  0
  8 38  1  0
  9 39  1  0
 10 13  1  0
 10 40  1  0
 11  1  2  0
 11 41  1  0
 12  8  2  0
 12 42  1  0
 13 24  2  0
 13 29  1  0
 15 43  1  0
 16 10  2  0
 16 44  1  0
 17 45  1  0
 18 17  1  0
 18 46  1  0
 19 11  1  0
 19 17  2  0
 20  9  2  0
 20 16  1  0
 21 18  2  0
 21 47  1  0
 22  6  1  0
 22 14  2  0
 22 20  1  0
 23  5  1  0
 23 15  2  0
 24  9  1  0
 24 48  1  0
 25 12  1  0
 25 49  1  0
 27 50  1  0
 28 51  1  0
 29 30  2  0
 30 31  1  0
 30 52  1  0
 31 32  2  0
 31 53  1  0
 32 33  1  0
 32 54  1  0
 33 34  2  0
 33 55  1  0
 34 29  1  0
 34 56  1  0
M  END
> <Name>
CHEMBL3393181

> <Clean Energy>
1.59818

> <chembl_id>
CHEMBL3393181

> <chembl_pref_name>
None

> <efficacy>
1.18708452

> <Forcefield>
MMFF

> <ForcefieldBase>
MMFF

> <ForcefieldFFML>
<?xml version="1.0" encoding="UTF-8"?>
<!DOCTYPE ffml SYSTEM "Ffml.dtd">
<ffml version="1.0">
<forcefield name="MMFF" derivedFrom="MMFF" base="MMFF">
<atomTypes>
<atomType
name="C100"
element="C"
mass="12.011"
annotation=""/>
<atomType
name="O101"
element="O"
mass="16"
annotation=""/>
<atomType
name="N102"
element="N"
mass="14.007"
annotation=""/>
<atomType
name="H103"
element="H"
mass="1.008"
annotation=""/>
</atomTypes>
<parameters>
</parameters>
</forcefield>
</ffml>

> <Initial Potential Energy>
187.50373

> <Initial RMS Gradient>
34.39058

> <Minimization Criteria>
CONJUG> Minimization exiting with gradient tolerance ( 0.0100000) satisfied.

> <CHARMm Energy>
60.55058

> <Potential Energy>
60.55058

> <RMS Gradient>
0.007

> <Bond Energy>
8.6696

> <Angle Energy>
11.85637

> <STRBend>
1.11705

> <Dihedral Energy>
16.49663

> <OOPLane>
0.17809

> <Van der Waals Energy>
79.14968

> <Electrostatic Energy>
-56.91685

> <Hydrogen Bond Energy>
0

> <Solvation Free Energy>
0

> <HasGasteigerCharges>
true

> <REMARK99>
REMARK  99  MacroMolecule created from Mol2 file
REMARK  99  CHEMBL3393181
REMARK  99  PROTEIN
REMARK  99  GASTEIGER
REMARK  99
REMARK  99

$$$$
CHEMBL339359
  SciTegic05292516403D

 47 50  0  0  0  0            999 V2000
   -1.6330   -7.6444   -1.1474 C   0  0
   10.2773   -6.5757    0.9953 N   0  0
   -1.1139   -8.5770   -0.3759 N   0  0
    9.8183   -6.1303   -0.1986 C   0  0
   -3.2718   -7.2517   -0.7649 S   0  0
    9.3684   -7.0042    1.9162 C   0  0
    8.0888   -6.1532   -0.2460 S   0  0
    7.9450   -6.8918    1.4281 C   0  0  1  0  0  0
   -2.0289   -9.0185    0.5615 C   0  0
   -3.2729   -8.3957    0.5141 C   0  0
   -0.8942   -7.0309   -2.1275 N   0  0
   10.5396   -5.7526   -1.1090 O   0  0
    9.7114   -7.4361    3.0111 O   0  0
    7.2795   -8.2748    1.4526 C   0  0
    5.9716   -8.3133    0.7034 C   0  0
    3.6745   -8.1129   -0.8857 C   0  0
    5.8857   -9.0109   -0.5069 C   0  0
    4.8733   -7.5645    1.1408 C   0  0
    4.7462   -8.9027   -1.2976 C   0  0
    3.7306   -7.4603    0.3454 C   0  0
    2.6538   -8.0430   -1.7862 O   0  0
    1.4765   -7.3433   -1.3781 C   0  0
    0.4241   -7.5952   -2.4532 C   0  0
   -1.8014  -10.0121    1.5368 C   0  0
   -4.2995   -8.7206    1.4147 C   0  0
   -1.5332   -6.1713   -3.1155 C   0  0
   -2.8170  -10.3474    2.4368 C   0  0
   -4.0485   -9.7043    2.3760 C   0  0
   11.2690   -6.5996    1.1863 H   0  0
    7.4116   -6.1799    2.0668 H   0  0
    7.9644   -9.0342    1.0506 H   0  0
    7.0977   -8.5779    2.4923 H   0  0
    6.7205   -9.6027   -0.8718 H   0  0
    4.9141   -7.0195    2.0812 H   0  0
    4.7087   -9.4135   -2.2569 H   0  0
    2.9151   -6.8396    0.7015 H   0  0
    1.1407   -7.7115   -0.4044 H   0  0
    1.6839   -6.2687   -1.3071 H   0  0
    0.7955   -7.1808   -3.3998 H   0  0
    0.3310   -8.6732   -2.6459 H   0  0
   -0.8387  -10.5104    1.5814 H   0  0
   -5.2612   -8.2209    1.3673 H   0  0
   -0.7854   -5.6611   -3.7329 H   0  0
   -2.1266   -5.3822   -2.6415 H   0  0
   -2.1746   -6.7577   -3.7817 H   0  0
   -2.6484  -11.1172    3.1864 H   0  0
   -4.8282   -9.9722    3.0849 H   0  0
  2  4  1  0
  2  6  1  0
  2 29  1  0
  3  1  2  0
  4  7  1  0
  5  1  1  0
  6  8  1  0
  7  8  1  0
  8 14  1  0
  8 30  1  0
  9  3  1  0
 10  5  1  0
 10  9  2  0
 11  1  1  0
 12  4  2  0
 13  6  2  0
 14 15  1  0
 14 31  1  0
 14 32  1  0
 15 17  2  0
 15 18  1  0
 16 21  1  0
 17 19  1  0
 17 33  1  0
 18 20  2  0
 18 34  1  0
 19 16  2  0
 19 35  1  0
 20 16  1  0
 20 36  1  0
 21 22  1  0
 22 23  1  0
 22 37  1  0
 22 38  1  0
 23 11  1  0
 23 39  1  0
 23 40  1  0
 24  9  1  0
 24 41  1  0
 25 10  1  0
 25 42  1  0
 26 11  1  0
 26 43  1  0
 26 44  1  0
 26 45  1  0
 27 24  2  0
 27 28  1  0
 27 46  1  0
 28 25  2  0
 28 47  1  0
M  END
> <Name>
CHEMBL339359

> <Clean Energy>
48.243301

> <chembl_id>
CHEMBL339359

> <chembl_pref_name>
None

> <efficacy>
1.13960114

> <Forcefield>
MMFF

> <ForcefieldBase>
MMFF

> <ForcefieldFFML>
<?xml version="1.0" encoding="UTF-8"?>
<!DOCTYPE ffml SYSTEM "Ffml.dtd">
<ffml version="1.0">
<forcefield name="MMFF" derivedFrom="MMFF" base="MMFF">
<atomTypes>
<atomType
name="C100"
element="C"
mass="12.011"
annotation=""/>
<atomType
name="N101"
element="N"
mass="14.007"
annotation=""/>
<atomType
name="S102"
element="S"
mass="32.066"
annotation=""/>
<atomType
name="O103"
element="O"
mass="16"
annotation=""/>
<atomType
name="H104"
element="H"
mass="1.008"
annotation=""/>
</atomTypes>
<parameters>
</parameters>
</forcefield>
</ffml>

> <Initial Potential Energy>
50.57431

> <Initial RMS Gradient>
30.57456

> <Minimization Criteria>
STEEPD> Minimization exiting with gradient tolerance ( 3.0000000) satisfied.

> <CHARMm Energy>
-39.45613

> <Potential Energy>
-39.45613

> <RMS Gradient>
0.08588

> <Bond Energy>
4.34595

> <Angle Energy>
17.91378

> <STRBend>
-0.63805

> <Dihedral Energy>
7.09655

> <OOPLane>
0.72943

> <Van der Waals Energy>
45.77188

> <Electrostatic Energy>
-114.67568

> <Hydrogen Bond Energy>
0

> <Solvation Free Energy>
0

> <HasGasteigerCharges>
true

> <REMARK99>
REMARK  99  MacroMolecule created from Mol2 file
REMARK  99  CHEMBL339359
REMARK  99  PROTEIN
REMARK  99  GASTEIGER
REMARK  99
REMARK  99

$$$$
CHEMBL245656
  SciTegic05292516403D

 73 77  0  0  0  0            999 V2000
   -5.7453  -10.4028   -0.4081 O   0  0
   -4.4036  -10.4740   -0.6422 C   0  0
   -3.9371   -9.1902   -0.8341 C   0  0
   -4.9935   -8.3060   -0.7369 N   0  0
   -6.0472   -9.0673   -0.4985 C   0  0
   -7.4497   -8.6946   -0.3390 C   0  0
   -7.8405   -7.3576   -0.5108 C   0  0
   -9.1784   -6.9780   -0.3762 C   0  0
  -10.1434   -7.9327   -0.0657 C   0  0
   -9.7738   -9.2643    0.1108 C   0  0
   -8.4354   -9.6426   -0.0247 C   0  0
   -3.8097  -11.8212   -0.6474 C   0  0
   -2.5650   -8.7143   -1.1583 C   0  0
   -1.5692   -8.8678   -0.0091 C   0  0
   -0.2860   -8.4531   -0.4885 O   0  0
    0.7955   -8.6651    0.3209 C   0  0
    0.7635   -9.1384    1.6314 C   0  0
    1.9542   -9.2943    2.3482 C   0  0
    3.1802   -8.9810    1.7585 C   0  0
    3.2329   -8.5196    0.4362 C   0  0
    2.0282   -8.3554   -0.2662 C   0  0
    4.5574   -8.1713   -0.2192 C   0  0
    5.5277   -9.2910   -0.1958 N   0  0
    6.8612   -8.8416   -0.6665 C   0  0
    5.0487  -10.3885   -1.0987 C   0  0
    5.6205  -11.7089   -0.6014 C   0  0
    5.8839  -12.6731   -1.3051 O   0  0
    5.8196  -11.7022    0.7455 O   0  0
    7.4888   -7.7984    0.2281 C   0  0
    7.5418   -6.4591   -0.1859 C   0  0
    8.0940   -5.4907    0.6498 C   0  0
    8.5735   -5.8303    1.9127 C   0  0
    8.5328   -7.1609    2.3286 C   0  0
    7.9931   -8.1412    1.4915 C   0  0
    8.0807   -4.1840    0.2341 O   0  0
    9.2670   -3.6417   -0.2164 C   0  0
   10.3862   -4.3763   -0.6179 C   0  0
   11.5273   -3.7175   -1.0831 C   0  0
   11.5510   -2.3257   -1.1550 C   0  0
   10.4318   -1.5891   -0.7662 C   0  0
    9.2922   -2.2463   -0.3016 C   0  0
   -7.0952   -6.6024   -0.7560 H   0  0
   -9.4636   -5.9383   -0.5144 H   0  0
  -11.1837   -7.6381    0.0378 H   0  0
  -10.5245  -10.0112    0.3536 H   0  0
   -8.1666  -10.6873    0.1171 H   0  0
   -3.6460  -12.1684    0.3772 H   0  0
   -2.8473  -11.8249   -1.1681 H   0  0
   -4.4679  -12.5349   -1.1523 H   0  0
   -2.1935   -9.2582   -2.0364 H   0  0
   -2.5993   -7.6613   -1.4654 H   0  0
   -1.8721   -8.2406    0.8382 H   0  0
   -1.5321   -9.9174    0.3073 H   0  0
   -0.1684   -9.3847    2.1304 H   0  0
    1.9240   -9.6510    3.3750 H   0  0
    4.0953   -9.0897    2.3388 H   0  0
    2.0387   -7.9782   -1.2871 H   0  0
    4.3978   -7.8275   -1.2500 H   0  0
    4.9323   -7.3100    0.3451 H   0  0
    7.5517   -9.6949   -0.7000 H   0  0
    6.8014   -8.4596   -1.6950 H   0  0
    3.9617  -10.5149   -1.0653 H   0  0
    5.3450  -10.2194   -2.1398 H   0  0
    5.5156  -10.8078    1.0431 H   0  0
    7.1513   -6.1596   -1.1551 H   0  0
    8.9823   -5.0644    2.5657 H   0  0
    8.9242   -7.4337    3.3062 H   0  0
    7.9669   -9.1749    1.8315 H   0  0
   10.3853   -5.4622   -0.5886 H   0  0
   12.3873   -4.3040   -1.3944 H   0  0
   12.4393   -1.8111   -1.5167 H   0  0
   10.4501   -0.5023   -0.8265 H   0  0
    8.4101   -1.6833   -0.0083 H   0  0
  1  2  1  0
  2  3  2  0
  2 12  1  0
  3  4  1  0
  3 13  1  0
  4  5  2  0
  5  1  1  0
  5  6  1  0
  6  7  2  0
  7  8  1  0
  7 42  1  0
  8  9  2  0
  8 43  1  0
  9 10  1  0
  9 44  1  0
 10 11  2  0
 10 45  1  0
 11  6  1  0
 11 46  1  0
 12 47  1  0
 12 48  1  0
 12 49  1  0
 13 14  1  0
 13 50  1  0
 13 51  1  0
 14 15  1  0
 14 52  1  0
 14 53  1  0
 15 16  1  0
 16 17  2  0
 17 18  1  0
 17 54  1  0
 18 19  2  0
 18 55  1  0
 19 20  1  0
 19 56  1  0
 20 21  2  0
 20 22  1  0
 21 16  1  0
 21 57  1  0
 22 23  1  0
 22 58  1  0
 22 59  1  0
 23 24  1  0
 23 25  1  0
 24 29  1  0
 24 60  1  0
 24 61  1  0
 25 26  1  0
 25 62  1  0
 25 63  1  0
 26 27  2  0
 26 28  1  0
 28 64  1  0
 29 30  2  0
 30 31  1  0
 30 65  1  0
 31 32  2  0
 31 35  1  0
 32 33  1  0
 32 66  1  0
 33 34  2  0
 33 67  1  0
 34 29  1  0
 34 68  1  0
 35 36  1  0
 36 37  2  0
 37 38  1  0
 37 69  1  0
 38 39  2  0
 38 70  1  0
 39 40  1  0
 39 71  1  0
 40 41  2  0
 40 72  1  0
 41 36  1  0
 41 73  1  0
M  END
> <Name>
CHEMBL245656

> <Clean Energy>
49.308601

> <chembl_id>
CHEMBL245656

> <chembl_pref_name>
None

> <efficacy>
1.025

> <Forcefield>
MMFF

> <ForcefieldBase>
MMFF

> <ForcefieldFFML>
<?xml version="1.0" encoding="UTF-8"?>
<!DOCTYPE ffml SYSTEM "Ffml.dtd">
<ffml version="1.0">
<forcefield name="MMFF" derivedFrom="MMFF" base="MMFF">
<atomTypes>
<atomType
name="O100"
element="O"
mass="16"
annotation=""/>
<atomType
name="C101"
element="C"
mass="12.011"
annotation=""/>
<atomType
name="N102"
element="N"
mass="14.007"
annotation=""/>
<atomType
name="H103"
element="H"
mass="1.008"
annotation=""/>
</atomTypes>
<parameters>
</parameters>
</forcefield>
</ffml>

> <Initial Potential Energy>
329.01958

> <Initial RMS Gradient>
36.44355

> <Minimization Criteria>
STEEPD> Minimization exiting with gradient tolerance ( 3.0000000) satisfied.

> <CHARMm Energy>
105.99219

> <Potential Energy>
105.99219

> <RMS Gradient>
0.04929

> <Bond Energy>
8.44795

> <Angle Energy>
15.86627

> <STRBend>
0.78197

> <Dihedral Energy>
5.13224

> <OOPLane>
0.07574

> <Van der Waals Energy>
83.88843

> <Electrostatic Energy>
-8.20041

> <Hydrogen Bond Energy>
0

> <Solvation Free Energy>
0

> <HasGasteigerCharges>
true

> <REMARK99>
REMARK  99  MacroMolecule created from Mol2 file
REMARK  99  CHEMBL245656
REMARK  99  PROTEIN
REMARK  99  GASTEIGER
REMARK  99
REMARK  99

$$$$
CHEMBL1946409
  SciTegic05292516403D

 52 54  0  0  0  0            999 V2000
    6.6143   -4.0014    0.1640 C   0  0
    7.6813   -4.1761    1.0692 C   0  0
    9.0153   -4.3559    0.6366 C   0  0
    9.3184   -4.3612   -0.7187 C   0  0
    8.2648   -4.1778   -1.6253 C   0  0
    6.9341   -3.9877   -1.1967 C   0  0
    4.0698   -5.9322    0.1313 C   0  0
    3.9785   -4.4092   -0.0218 C   0  0  2  0  0  0
    5.2012   -3.7578    0.6883 C   0  0
    5.0187   -6.6276   -0.2027 O   0  0
    3.0022   -6.5351    0.6991 O   0  0
    2.7838   -3.8362    0.5590 O   0  0
    1.6113   -3.9647   -0.2704 C   0  0
    0.3320   -3.4801    0.4188 C   0  0
   10.5537   -4.5415   -1.2849 O   0  0
   11.7367   -4.5893   -0.4573 C   0  0
   12.9390   -4.8427   -1.3877 C   0  0
   14.2533   -4.5983   -0.7739 N   0  0
   14.9565   -5.6350   -0.2548 C   0  0
   14.9341   -3.3455   -1.0563 C   0  0
   14.5078   -6.8439    0.0328 N   0  0
   16.2829   -5.4299    0.0228 O   0  0
   16.7092   -6.6304    0.4997 C   0  0
   15.6293   -7.4971    0.4964 C   0  0
   15.8331   -8.8149    0.9333 C   0  0
   17.1177   -9.1889    1.3607 C   0  0
   18.1773   -8.2745    1.3525 C   0  0
   17.9955   -6.9577    0.9153 C   0  0
    0.4187   -2.1822    0.7872 F   0  0
   -0.7232   -3.5821   -0.4287 F   0  0
    0.0281   -4.2076    1.5162 F   0  0
    7.4906   -4.1778    2.1414 H   0  0
    9.7828   -4.4956    1.3893 H   0  0
    8.4825   -4.1799   -2.6914 H   0  0
    6.1676   -3.8299   -1.9509 H   0  0
    3.9903   -4.1758   -1.0925 H   0  0
    5.1646   -4.0587    1.7450 H   0  0
    5.0520   -2.6692    0.6980 H   0  0
    3.3928   -7.4328    0.8061 H   0  0
    1.7702   -3.3686   -1.1759 H   0  0
    1.4752   -5.0080   -0.5706 H   0  0
   11.8517   -3.6312    0.0619 H   0  0
   11.6579   -5.4005    0.2749 H   0  0
   12.8734   -5.8636   -1.7882 H   0  0
   12.8354   -4.2026   -2.2747 H   0  0
   15.5324   -3.0115   -0.2011 H   0  0
   14.2113   -2.5492   -1.2665 H   0  0
   15.5872   -3.4496   -1.9293 H   0  0
   15.0178   -9.5290    0.9385 H   0  0
   17.2881  -10.2074    1.7035 H   0  0
   19.1618   -8.5933    1.6901 H   0  0
   18.8011   -6.2350    0.8963 H   0  0
  1  2  1  0
  1  6  2  0
  1  9  1  0
  2  3  2  0
  2 32  1  0
  3  4  1  0
  3 33  1  0
  4  5  2  0
  4 15  1  0
  5  6  1  0
  5 34  1  0
  6 35  1  0
  7  8  1  0
  7 10  2  0
  7 11  1  0
  8  9  1  0
  8 12  1  0
  8 36  1  0
  9 37  1  0
  9 38  1  0
 11 39  1  0
 12 13  1  0
 13 14  1  0
 13 40  1  0
 13 41  1  0
 14 29  1  0
 14 30  1  0
 14 31  1  0
 15 16  1  0
 16 17  1  0
 16 42  1  0
 16 43  1  0
 17 18  1  0
 17 44  1  0
 17 45  1  0
 18 19  1  0
 18 20  1  0
 19 21  2  0
 20 46  1  0
 20 47  1  0
 20 48  1  0
 21 24  1  0
 22 19  1  0
 23 22  1  0
 23 24  2  0
 24 25  1  0
 25 26  2  0
 25 49  1  0
 26 27  1  0
 26 50  1  0
 27 28  2  0
 27 51  1  0
 28 23  1  0
 28 52  1  0
M  END
> <Name>
CHEMBL1946409

> <Clean Energy>
38.303101

> <chembl_id>
CHEMBL1946409

> <chembl_pref_name>
None

> <efficacy>
0.997340426

> <Forcefield>
MMFF

> <ForcefieldBase>
MMFF

> <ForcefieldFFML>
<?xml version="1.0" encoding="UTF-8"?>
<!DOCTYPE ffml SYSTEM "Ffml.dtd">
<ffml version="1.0">
<forcefield name="MMFF" derivedFrom="MMFF" base="MMFF">
<atomTypes>
<atomType
name="C100"
element="C"
mass="12.011"
annotation=""/>
<atomType
name="O101"
element="O"
mass="16"
annotation=""/>
<atomType
name="N102"
element="N"
mass="14.007"
annotation=""/>
<atomType
name="F103"
element="F"
mass="18.998"
annotation=""/>
<atomType
name="H104"
element="H"
mass="1.008"
annotation=""/>
</atomTypes>
<parameters>
</parameters>
</forcefield>
</ffml>

> <Initial Potential Energy>
183.85815

> <Initial RMS Gradient>
33.97758

> <Minimization Criteria>
CONJUG> Minimization exiting with gradient tolerance ( 0.0100000) satisfied.

> <CHARMm Energy>
71.31582

> <Potential Energy>
71.31582

> <RMS Gradient>
0.00892

> <Bond Energy>
6.91412

> <Angle Energy>
25.27587

> <STRBend>
1.03635

> <Dihedral Energy>
7.21451

> <OOPLane>
0.45435

> <Van der Waals Energy>
42.00821

> <Electrostatic Energy>
-11.58759

> <Hydrogen Bond Energy>
0

> <Solvation Free Energy>
0

> <HasGasteigerCharges>
true

> <REMARK99>
REMARK  99  MacroMolecule created from Mol2 file
REMARK  99  CHEMBL1946409
REMARK  99  PROTEIN
REMARK  99  GASTEIGER
REMARK  99
REMARK  99

$$$$
CHEMBL425639
  SciTegic05292516403D

 54 57  0  0  0  0            999 V2000
   19.1055  -17.0974    1.0967 C   0  0
   18.2637  -15.9436    1.5911 C   0  0
   18.7884  -14.7665    0.7623 C   0  0  1  0  0  0
   19.4113  -15.3324   -0.4320 O   0  0
   19.2549  -16.7626   -0.3681 C   0  0
   14.1101  -14.6312    0.3777 C   0  0
   14.0220  -15.2091   -0.8805 C   0  0
   15.0704  -15.2746   -1.7262 N   0  0
   16.2434  -14.7490   -1.3122 C   0  0
   16.4330  -14.1624   -0.0689 C   0  0
   15.3297  -14.0970    0.7835 C   0  0
   12.9007  -15.8060   -1.3787 O   0  0
   11.6620  -15.3354   -0.8510 C   0  0
   10.5464  -15.8507   -1.7493 C   0  0
    9.2190  -15.3303   -1.3400 C   0  0
    8.5358  -14.2209   -1.7891 C   0  0
    7.3544  -14.1547   -1.1081 O   0  0
    7.3694  -15.2484   -0.2816 C   0  0
    8.4773  -15.9645   -0.3678 N   0  0
    6.1971  -15.4551    0.5628 C   0  0
    5.1692  -14.5051    0.6464 C   0  0
    4.0681  -14.7338    1.4709 C   0  0
    3.9681  -15.9052    2.2197 C   0  0
    4.9803  -16.8580    2.1441 C   0  0
    6.0871  -16.6320    1.3209 C   0  0
    8.7899  -13.1646   -2.7837 C   0  0
   17.7811  -13.6652    0.3767 C   0  0
   19.9012  -14.0578    1.5424 C   0  0
   21.0713  -14.0248    0.8579 O   0  0
   19.7678  -13.5585    2.6498 O   0  0
    2.8162  -13.5554    1.5680 Cl  0  0
   20.0841  -17.0818    1.5905 H   0  0
   18.6476  -18.0753    1.2665 H   0  0
   17.2160  -16.1728    1.3765 H   0  0
   18.3501  -15.8023    2.6729 H   0  0
   18.3602  -17.0351   -0.9378 H   0  0
   20.1238  -17.2439   -0.8247 H   0  0
   13.2708  -14.6029    1.0612 H   0  0
   17.0565  -14.8316   -2.0295 H   0  0
   15.4168  -13.6561    1.7742 H   0  0
   11.5193  -15.7188    0.1669 H   0  0
   11.6437  -14.2374   -0.8326 H   0  0
   10.7550  -15.5796   -2.7918 H   0  0
   10.5377  -16.9477   -1.7315 H   0  0
    5.2282  -13.5827    0.0734 H   0  0
    3.1084  -16.0793    2.8608 H   0  0
    4.9223  -17.7759    2.7224 H   0  0
    6.8704  -17.3873    1.2703 H   0  0
    8.0472  -13.2087   -3.5860 H   0  0
    9.7820  -13.2714   -3.2322 H   0  0
    8.7349  -12.1769   -2.3159 H   0  0
   18.1981  -13.0495   -0.4324 H   0  0
   17.6281  -12.9769    1.2189 H   0  0
   20.9502  -14.4901   -0.0027 H   0  0
  1  2  1  0
  1 32  1  0
  1 33  1  0
  2  3  1  0
  2 34  1  0
  2 35  1  0
  3  4  1  0
  3 28  1  0
  4  5  1  0
  5  1  1  0
  5 36  1  0
  5 37  1  0
  6  7  2  0
  6 38  1  0
  7  8  1  0
  7 12  1  0
  8  9  2  0
  9 10  1  0
  9 39  1  0
 10 11  2  0
 10 27  1  0
 11  6  1  0
 11 40  1  0
 12 13  1  0
 13 14  1  0
 13 41  1  0
 13 42  1  0
 14 15  1  0
 14 43  1  0
 14 44  1  0
 15 16  2  0
 16 17  1  0
 16 26  1  0
 17 18  1  0
 18 19  2  0
 18 20  1  0
 19 15  1  0
 20 21  2  0
 21 22  1  0
 21 45  1  0
 22 23  2  0
 22 31  1  0
 23 24  1  0
 23 46  1  0
 24 25  2  0
 24 47  1  0
 25 20  1  0
 25 48  1  0
 26 49  1  0
 26 50  1  0
 26 51  1  0
 27  3  1  0
 27 52  1  0
 27 53  1  0
 28 29  1  0
 28 30  2  0
 29 54  1  0
M  END
> <Name>
CHEMBL425639

> <Clean Energy>
76.717796

> <chembl_id>
CHEMBL425639

> <chembl_pref_name>
None

> <efficacy>
1.119565217

> <Forcefield>
MMFF

> <ForcefieldBase>
MMFF

> <ForcefieldFFML>
<?xml version="1.0" encoding="UTF-8"?>
<!DOCTYPE ffml SYSTEM "Ffml.dtd">
<ffml version="1.0">
<forcefield name="MMFF" derivedFrom="MMFF" base="MMFF">
<atomTypes>
<atomType
name="C100"
element="C"
mass="12.011"
annotation=""/>
<atomType
name="O101"
element="O"
mass="16"
annotation=""/>
<atomType
name="N102"
element="N"
mass="14.007"
annotation=""/>
<atomType
name="Cl103"
element="Cl"
mass="35.453"
annotation=""/>
<atomType
name="H104"
element="H"
mass="1.008"
annotation=""/>
</atomTypes>
<parameters>
</parameters>
</forcefield>
</ffml>

> <Initial Potential Energy>
184.14152

> <Initial RMS Gradient>
30.61496

> <Minimization Criteria>
STEEPD> Minimization exiting with gradient tolerance ( 3.0000000) satisfied.

> <CHARMm Energy>
61.7767

> <Potential Energy>
61.7767

> <RMS Gradient>
0.05021

> <Bond Energy>
4.46705

> <Angle Energy>
12.89772

> <STRBend>
0.65442

> <Dihedral Energy>
2.77978

> <OOPLane>
0.03251

> <Van der Waals Energy>
49.20775

> <Electrostatic Energy>
-8.26254

> <Hydrogen Bond Energy>
0

> <Solvation Free Energy>
0

> <HasGasteigerCharges>
true

> <REMARK99>
REMARK  99  MacroMolecule created from Mol2 file
REMARK  99  CHEMBL425639
REMARK  99  PROTEIN
REMARK  99  GASTEIGER
REMARK  99
REMARK  99

$$$$
CHEMBL3597416
  SciTegic05292516403D

 57 60  0  0  0  0            999 V2000
   -1.8822    1.0160   -0.0525 C   0  0
   -2.2969   -0.0059   -0.9002 C   0  0
   -1.3630   -0.8230   -1.5364 C   0  0
   -0.5244    1.2193    0.2296 C   0  0
    0.4351    0.3742   -0.3718 C   0  0
   -0.0114   -0.6184   -1.2438 C   0  0
    1.0938   -1.3024   -1.6890 N   0  0
    2.2239   -0.8097   -1.0962 C   0  0
    1.8613    0.2433   -0.2761 C   0  0
    2.7904    1.0543    0.5731 C   0  0
    3.2063    0.3189    1.8289 C   0  0
    2.1757   -0.1417    2.5817 O   0  0
    4.3713    0.1415    2.1642 O   0  0
   -2.8688    1.7495    0.5510 O   0  0
   -2.7589    3.1504    0.2715 C   0  0
   -4.1157    3.7813    0.5555 C   0  0
   -4.1272    5.2756    0.2620 C   0  0
   -5.4361    5.7644    0.5629 O   0  0
   -5.6345    7.1161    0.4862 C   0  0
   -6.8585    7.5608    0.9929 C   0  0
   -7.1938    8.9171    0.9697 C   0  0
   -6.3028    9.8431    0.4363 C   0  0
   -5.0743    9.4102   -0.0618 C   0  0
   -4.7452    8.0447   -0.0545 C   0  0
   -4.2604   10.3935   -0.5885 O   0  0
   -2.9050   10.2001   -0.4824 C   0  0
   -2.1611   10.1631   -1.6596 C   0  0
   -0.7867    9.9416   -1.6019 C   0  0
   -0.1541    9.7410   -0.3646 C   0  0
   -0.9118    9.8171    0.8163 C   0  0
   -2.2823   10.0641    0.7599 C   0  0
    1.3274    9.4540   -0.3027 C   0  0
    2.0618   10.6004   -0.2305 F   0  0
    1.6811    8.6896    0.7694 F   0  0
    1.7763    8.7675   -1.3930 F   0  0
   -3.3579   -0.1788   -1.0730 H   0  0
   -1.6863   -1.6117   -2.2077 H   0  0
   -0.2157    1.9884    0.9281 H   0  0
    1.0634   -2.0802   -2.3331 H   0  0
    3.1851   -1.2693   -1.2980 H   0  0
    3.6944    1.2899   -0.0011 H   0  0
    2.3396    2.0079    0.8671 H   0  0
    1.3074    0.0753    2.1864 H   0  0
   -1.9973    3.5955    0.9221 H   0  0
   -2.4849    3.3191   -0.7781 H   0  0
   -4.8933    3.2789   -0.0346 H   0  0
   -4.4017    3.6010    1.5999 H   0  0
   -3.3808    5.7790    0.8885 H   0  0
   -3.9024    5.4429   -0.7979 H   0  0
   -7.5647    6.8457    1.4067 H   0  0
   -8.1485    9.2489    1.3655 H   0  0
   -6.5623   10.8985    0.4119 H   0  0
   -3.8018    7.7241   -0.4805 H   0  0
   -2.6552   10.2887   -2.6196 H   0  0
   -0.2133    9.9039   -2.5275 H   0  0
   -0.4325    9.6387    1.7792 H   0  0
   -2.8680   10.1280    1.6738 H   0  0
  1  2  2  0
  1 14  1  0
  2  3  1  0
  2 36  1  0
  3  6  2  0
  3 37  1  0
  4  1  1  0
  4 38  1  0
  5  4  2  0
  5  6  1  0
  6  7  1  0
  7  8  1  0
  7 39  1  0
  8  9  2  0
  8 40  1  0
  9  5  1  0
  9 10  1  0
 10 11  1  0
 10 41  1  0
 10 42  1  0
 11 12  1  0
 11 13  2  0
 12 43  1  0
 14 15  1  0
 15 16  1  0
 15 44  1  0
 15 45  1  0
 16 17  1  0
 16 46  1  0
 16 47  1  0
 17 18  1  0
 17 48  1  0
 17 49  1  0
 18 19  1  0
 19 20  2  0
 20 21  1  0
 20 50  1  0
 21 22  2  0
 21 51  1  0
 22 23  1  0
 22 52  1  0
 23 24  2  0
 23 25  1  0
 24 19  1  0
 24 53  1  0
 25 26  1  0
 26 27  2  0
 27 28  1  0
 27 54  1  0
 28 29  2  0
 28 55  1  0
 29 30  1  0
 29 32  1  0
 30 31  2  0
 30 56  1  0
 31 26  1  0
 31 57  1  0
 32 33  1  0
 32 34  1  0
 32 35  1  0
M  END
> <Name>
CHEMBL3597416

> <Clean Energy>
43.724998

> <chembl_id>
CHEMBL3597416

> <chembl_pref_name>
None

> <efficacy>
1.193

> <Forcefield>
MMFF

> <ForcefieldBase>
MMFF

> <ForcefieldFFML>
<?xml version="1.0" encoding="UTF-8"?>
<!DOCTYPE ffml SYSTEM "Ffml.dtd">
<ffml version="1.0">
<forcefield name="MMFF" derivedFrom="MMFF" base="MMFF">
<atomTypes>
<atomType
name="C100"
element="C"
mass="12.011"
annotation=""/>
<atomType
name="N101"
element="N"
mass="14.007"
annotation=""/>
<atomType
name="O102"
element="O"
mass="16"
annotation=""/>
<atomType
name="F103"
element="F"
mass="18.998"
annotation=""/>
<atomType
name="H104"
element="H"
mass="1.008"
annotation=""/>
</atomTypes>
<parameters>
</parameters>
</forcefield>
</ffml>

> <Initial Potential Energy>
274.5578

> <Initial RMS Gradient>
54.69191

> <Minimization Criteria>
CONJUG> Minimization exiting with gradient tolerance ( 0.0100000) satisfied.

> <CHARMm Energy>
73.19095

> <Potential Energy>
73.19095

> <RMS Gradient>
0.0092

> <Bond Energy>
5.205

> <Angle Energy>
15.83401

> <STRBend>
-0.32371

> <Dihedral Energy>
10.84661

> <OOPLane>
0.07294

> <Van der Waals Energy>
59.94944

> <Electrostatic Energy>
-18.39335

> <Hydrogen Bond Energy>
0

> <Solvation Free Energy>
0

> <HasGasteigerCharges>
true

> <REMARK99>
REMARK  99  MacroMolecule created from Mol2 file
REMARK  99  CHEMBL3597416
REMARK  99  PROTEIN
REMARK  99  GASTEIGER
REMARK  99
REMARK  99

$$$$
CHEMBL3263247
  SciTegic05292516403D

 49 52  0  0  0  0            999 V2000
    7.6905   -4.3270   -0.2860 C   0  0
    7.6000   -5.6279   -0.7668 C   0  0
    8.7027   -6.4880   -0.6997 C   0  0
    9.9225   -6.0649   -0.1559 C   0  0
   10.0067   -4.7333    0.3014 C   0  0
    8.8928   -3.8796    0.2517 C   0  0
   11.2603   -4.1187    0.8069 C   0  0
   12.3346   -4.2363   -0.0558 N   0  0
   11.2380   -3.5444    1.8869 O   0  0
   13.6076   -3.6429    0.0837 C   0  0
   11.0360   -6.9380   -0.0176 N   0  0
   11.1364   -8.2407   -0.4820 C   0  0
   12.3963   -8.9517   -0.1338 C   0  0
   10.2962   -8.8544   -1.1283 O   0  0
   12.3300  -10.3255    0.1258 C   0  0
   13.4863  -11.0339    0.4559 C   0  0
   13.6313   -8.2938   -0.0977 C   0  0
   14.8004   -8.9978    0.2304 C   0  0
   14.7255  -10.3820    0.5203 C   0  0
   15.8945  -11.0801    0.8569 C   0  0
   17.1244  -10.4219    0.9013 C   0  0
   17.1994   -9.0634    0.6041 C   0  0
   16.0459   -8.3545    0.2689 C   0  0
   14.5609   -3.9479   -0.8906 C   0  0
   15.8438   -3.3814   -0.8380 C   0  0
   16.1888   -2.5036    0.1927 C   0  0
   15.2372   -2.1897    1.1619 C   0  0
   13.9576   -2.7607    1.1099 C   0  0
   16.8129   -3.8033   -1.8705 C   0  0
   16.8088   -4.9320   -2.3323 O   0  0
   17.6484   -2.8321   -2.2783 O   0  0
    6.8324   -3.6634   -0.3343 H   0  0
    6.6658   -5.9924   -1.1887 H   0  0
    8.5527   -7.4994   -1.0665 H   0  0
    8.9706   -2.8590    0.6218 H   0  0
   12.1728   -4.7582   -0.9119 H   0  0
   11.8062   -6.5894    0.5433 H   0  0
   11.3773  -10.8510    0.0714 H   0  0
   13.4132  -12.1025    0.6547 H   0  0
   13.7045   -7.2406   -0.3524 H   0  0
   15.8547  -12.1450    1.0841 H   0  0
   18.0248  -10.9704    1.1618 H   0  0
   18.1574   -8.5513    0.6270 H   0  0
   16.1341   -7.2959    0.0313 H   0  0
   14.3248   -4.6364   -1.7005 H   0  0
   17.1897   -2.0845    0.2758 H   0  0
   15.4870   -1.5032    1.9705 H   0  0
   13.2504   -2.4843    1.8873 H   0  0
   17.4797   -1.9249   -1.9560 H   0  0
  1  2  2  0
  1 32  1  0
  2  3  1  0
  2 33  1  0
  3  4  2  0
  3 34  1  0
  4  5  1  0
  4 11  1  0
  5  6  2  0
  5  7  1  0
  6  1  1  0
  6 35  1  0
  7  8  1  0
  7  9  2  0
  8 10  1  0
  8 36  1  0
 10 24  2  0
 11 12  1  0
 11 37  1  0
 12 13  1  0
 12 14  2  0
 13 15  2  0
 15 16  1  0
 15 38  1  0
 16 19  2  0
 16 39  1  0
 17 13  1  0
 17 40  1  0
 18 17  2  0
 18 19  1  0
 19 20  1  0
 20 21  2  0
 20 41  1  0
 21 22  1  0
 21 42  1  0
 22 23  2  0
 22 43  1  0
 23 18  1  0
 23 44  1  0
 24 25  1  0
 24 45  1  0
 25 26  2  0
 25 29  1  0
 26 27  1  0
 26 46  1  0
 27 28  2  0
 27 47  1  0
 28 10  1  0
 28 48  1  0
 29 30  2  0
 29 31  1  0
 31 49  1  0
M  END
> <Name>
CHEMBL3263247

> <Clean Energy>
-1.156

> <chembl_id>
CHEMBL3263247

> <chembl_pref_name>
None

> <efficacy>
1.196581197

> <Forcefield>
MMFF

> <ForcefieldBase>
MMFF

> <ForcefieldFFML>
<?xml version="1.0" encoding="UTF-8"?>
<!DOCTYPE ffml SYSTEM "Ffml.dtd">
<ffml version="1.0">
<forcefield name="MMFF" derivedFrom="MMFF" base="MMFF">
<atomTypes>
<atomType
name="C100"
element="C"
mass="12.011"
annotation=""/>
<atomType
name="N101"
element="N"
mass="14.007"
annotation=""/>
<atomType
name="O102"
element="O"
mass="16"
annotation=""/>
<atomType
name="H103"
element="H"
mass="1.008"
annotation=""/>
</atomTypes>
<parameters>
</parameters>
</forcefield>
</ffml>

> <Initial Potential Energy>
256.80398

> <Initial RMS Gradient>
87.97097

> <Minimization Criteria>
CONJUG> Minimization exiting with gradient tolerance ( 0.0100000) satisfied.

> <CHARMm Energy>
68.53734

> <Potential Energy>
68.53734

> <RMS Gradient>
0.00988

> <Bond Energy>
7.44699

> <Angle Energy>
12.43547

> <STRBend>
1.28483

> <Dihedral Energy>
13.52438

> <OOPLane>
0.13982

> <Van der Waals Energy>
73.44339

> <Electrostatic Energy>
-39.73755

> <Hydrogen Bond Energy>
0

> <Solvation Free Energy>
0

> <HasGasteigerCharges>
true

> <REMARK99>
REMARK  99  MacroMolecule created from Mol2 file
REMARK  99  CHEMBL3263247
REMARK  99  PROTEIN
REMARK  99  GASTEIGER
REMARK  99
REMARK  99

$$$$
CHEMBL166539
  SciTegic05292516403D

 56 59  0  0  0  0            999 V2000
   -2.1158   -1.3294    0.2760 C   0  0
   -1.8343    0.0333   -0.1177 C   0  0
   -0.9154   -1.9494    0.6878 C   0  0
   -0.4545    0.2748    0.0322 C   0  0
    0.2558   -0.9868    0.5206 C   0  0
    9.7547    1.3366    1.0632 C   0  0
    8.8055    0.2075    0.6665 C   0  0  1  0  0  0
    9.4514    2.3049    1.7434 O   0  0
    7.7568    0.7660   -0.2981 C   0  0
    6.5582   -0.1435   -0.4229 C   0  0
   11.0069    1.1554    0.5704 O   0  0
    4.3543   -1.8767   -0.6041 C   0  0
    1.2980   -1.4405   -0.5068 C   0  0
    9.6216   -0.7923    0.0062 O   0  0
    6.4297   -1.0134   -1.5106 C   0  0
    5.5775   -0.1522    0.5754 C   0  0
   -2.6784    1.0383   -0.5600 C   0  0
   -3.3150   -2.0192    0.3153 C   0  0
   -0.9160   -3.2418    1.1921 C   0  0
    0.0925    1.5189   -0.2471 C   0  0
    5.3371   -1.8764   -1.5947 C   0  0
    4.4832   -1.0158    0.4864 C   0  0
    3.3286   -2.7543   -0.8225 O   0  0
    2.1485   -2.6165   -0.0279 C   0  0
    9.3294   -2.1129    0.4742 C   0  0
   -2.1254   -3.9354    1.2334 C   0  0
   -0.7591    2.5312   -0.6934 C   0  0
   -2.1332    2.2932   -0.8495 C   0  0
   -3.3129   -3.3329    0.7903 C   0  0
   10.1483   -3.0944   -0.3399 C   0  0
    0.7044   -0.7817    1.5001 H   0  0
    8.3786   -0.1896    1.5960 H   0  0
    7.4020    1.7504    0.0339 H   0  0
    8.1999    0.9223   -1.2904 H   0  0
   11.0186    0.3058    0.0692 H   0  0
    0.8216   -1.7144   -1.4585 H   0  0
    1.9509   -0.5957   -0.7563 H   0  0
    7.1841   -1.0359   -2.2943 H   0  0
    5.6607    0.5150    1.4317 H   0  0
   -3.7436    0.8676   -0.6764 H   0  0
   -4.2403   -1.5553   -0.0071 H   0  0
   -0.0121   -3.7154    1.5570 H   0  0
    1.1545    1.7077   -0.1277 H   0  0
    5.2455   -2.5479   -2.4450 H   0  0
    3.7525   -0.9844    1.2864 H   0  0
    1.5869   -3.5453   -0.1740 H   0  0
    2.3876   -2.5758    1.0402 H   0  0
    9.6026   -2.1891    1.5323 H   0  0
    8.2647   -2.3358    0.3625 H   0  0
   -2.1570   -4.9530    1.6176 H   0  0
   -0.3504    3.5128   -0.9225 H   0  0
   -2.7844    3.0939   -1.1948 H   0  0
   -4.2436   -3.8925    0.8286 H   0  0
    9.9675   -4.1214   -0.0105 H   0  0
   11.2172   -2.8758   -0.2465 H   0  0
    9.8984   -3.0149   -1.4031 H   0  0
  2  1  1  0
  3  1  1  0
  4  2  2  0
  5  3  1  0
  5  4  1  0
  5 31  1  0
  6  7  1  0
  7  9  1  0
  7 32  1  0
  8  6  2  0
  9 10  1  0
  9 33  1  0
  9 34  1  0
 10 16  2  0
 11  6  1  0
 11 35  1  0
 12 23  1  0
 13  5  1  0
 13 36  1  0
 13 37  1  0
 14  7  1  0
 15 10  1  0
 15 21  2  0
 15 38  1  0
 16 22  1  0
 16 39  1  0
 17  2  1  0
 17 40  1  0
 18  1  2  0
 18 41  1  0
 19  3  2  0
 19 26  1  0
 19 42  1  0
 20  4  1  0
 20 27  2  0
 20 43  1  0
 21 12  1  0
 21 44  1  0
 22 12  2  0
 22 45  1  0
 23 24  1  0
 24 13  1  0
 24 46  1  0
 24 47  1  0
 25 14  1  0
 25 48  1  0
 25 49  1  0
 26 29  2  0
 26 50  1  0
 27 28  1  0
 27 51  1  0
 28 17  2  0
 28 52  1  0
 29 18  1  0
 29 53  1  0
 30 25  1  0
 30 54  1  0
 30 55  1  0
 30 56  1  0
M  END
> <Name>
CHEMBL166539

> <Clean Energy>
46.194599

> <chembl_id>
CHEMBL166539

> <chembl_pref_name>
None

> <efficacy>
1.27

> <Forcefield>
MMFF

> <ForcefieldBase>
MMFF

> <ForcefieldFFML>
<?xml version="1.0" encoding="UTF-8"?>
<!DOCTYPE ffml SYSTEM "Ffml.dtd">
<ffml version="1.0">
<forcefield name="MMFF" derivedFrom="MMFF" base="MMFF">
<atomTypes>
<atomType
name="C100"
element="C"
mass="12.011"
annotation=""/>
<atomType
name="O101"
element="O"
mass="16"
annotation=""/>
<atomType
name="H102"
element="H"
mass="1.008"
annotation=""/>
</atomTypes>
<parameters>
</parameters>
</forcefield>
</ffml>

> <Initial Potential Energy>
197.87546

> <Initial RMS Gradient>
28.84871

> <Minimization Criteria>
CONJUG> Minimization exiting with gradient tolerance ( 0.0100000) satisfied.

> <CHARMm Energy>
93.94175

> <Potential Energy>
93.94175

> <RMS Gradient>
0.00898

> <Bond Energy>
6.5796

> <Angle Energy>
29.27452

> <STRBend>
-1.3029

> <Dihedral Energy>
0.37348

> <OOPLane>
0.01931

> <Van der Waals Energy>
60.08235

> <Electrostatic Energy>
-1.0846

> <Hydrogen Bond Energy>
0

> <Solvation Free Energy>
0

> <HasGasteigerCharges>
true

> <REMARK99>
REMARK  99  MacroMolecule created from Mol2 file
REMARK  99  CHEMBL166539
REMARK  99  PROTEIN
REMARK  99  GASTEIGER
REMARK  99
REMARK  99

$$$$
CHEMBL3397727
  SciTegic05292516403D

 71 73  0  0  0  0            999 V2000
    2.6008   -2.8401    3.0294 C   0  0
    3.3182   -2.3852    1.8187 C   0  0
    3.5466   -3.4468    0.7729 C   0  0
    2.2521   -3.7852    0.0247 C   0  0
    2.4959   -4.8422   -1.0531 C   0  0
    1.2154   -5.1838   -1.7981 C   0  0
    3.0386   -3.7544    3.7117 O   0  0
    1.4676   -2.1563    3.2630 O   0  0
    3.8289   -1.1395    1.8589 C   0  0
    4.8137   -0.6378    0.8870 C   0  0
    4.5212    0.4058   -0.0088 C   0  0
    5.5276    0.8324   -0.8857 C   0  0
    6.7878    0.2046   -0.8939 C   0  0
    7.0645   -0.8528   -0.0292 C   0  0
    6.0902   -1.2423    0.8853 C   0  0
    8.3050   -1.4241   -0.1455 O   0  0
    8.4012   -2.7785    0.3174 C   0  0
    9.7441   -3.3951   -0.1205 C   0  0
    9.7484   -4.9081    0.1511 C   0  0
   11.0831   -5.5598   -0.2133 C   0  0
   12.2571   -4.8955    0.5156 C   0  0
   12.2626   -3.3830    0.2372 C   0  0
   10.9286   -2.7219    0.5906 C   0  0
   13.5877   -5.5236    0.1123 C   0  0
   13.8280   -5.3632   -1.2086 F   0  0
   14.6122   -4.9499    0.7841 F   0  0
   13.6334   -6.8488    0.3751 F   0  0
    3.2511    0.9324    0.0529 O   0  0
    2.8860    1.8589   -0.9715 C   0  0
    1.4288    2.2504   -0.8341 C   0  0
    0.9981    3.0404    0.2401 C   0  0
   -0.3337    3.4688    0.3244 C   0  0
   -1.2688    3.1202   -0.6641 C   0  0
   -0.8418    2.2982   -1.7180 C   0  0
    0.4897    1.8707   -1.8032 C   0  0
   -2.7072    3.5927   -0.5727 C   0  0
   -3.3606    3.5879   -1.7725 F   0  0
   -3.4492    2.8190    0.2651 F   0  0
   -2.8222    4.8721   -0.1101 F   0  0
    4.2963   -3.1343    0.0391 H   0  0
    3.9493   -4.3503    1.2478 H   0  0
    1.4953   -4.1531    0.7286 H   0  0
    1.8451   -2.8773   -0.4387 H   0  0
    3.2420   -4.4788   -1.7694 H   0  0
    2.9006   -5.7530   -0.5965 H   0  0
    1.4129   -5.9399   -2.5644 H   0  0
    0.8012   -4.2992   -2.2923 H   0  0
    0.4584   -5.5822   -1.1149 H   0  0
    1.2789   -1.4916    2.5719 H   0  0
    3.6028   -0.4548    2.6773 H   0  0
    5.3694    1.6503   -1.5834 H   0  0
    7.5529    0.5375   -1.5926 H   0  0
    6.2953   -2.0267    1.6100 H   0  0
    8.3355   -2.8025    1.4120 H   0  0
    7.5821   -3.3710   -0.1109 H   0  0
    9.8637   -3.2288   -1.1998 H   0  0
    9.5346   -5.0958    1.2112 H   0  0
    8.9478   -5.3900   -0.4229 H   0  0
   11.0428   -6.6261    0.0389 H   0  0
   11.2302   -5.4959   -1.2990 H   0  0
   12.1265   -5.0480    1.5949 H   0  0
   13.0625   -2.9015    0.8124 H   0  0
   12.4814   -3.1998   -0.8227 H   0  0
   10.9732   -1.6596    0.3231 H   0  0
   10.7849   -2.7688    1.6777 H   0  0
    3.4915    2.7708   -0.8930 H   0  0
    3.0475    1.4094   -1.9596 H   0  0
    1.7044    3.3406    1.0126 H   0  0
   -0.6367    4.0921    1.1651 H   0  0
   -1.5448    1.9943   -2.4927 H   0  0
    0.7889    1.2485   -2.6449 H   0  0
  1  2  1  0
  1  7  2  0
  1  8  1  0
  2  3  1  0
  2  9  2  0
  3  4  1  0
  3 40  1  0
  3 41  1  0
  4  5  1  0
  4 42  1  0
  4 43  1  0
  5  6  1  0
  5 44  1  0
  5 45  1  0
  6 46  1  0
  6 47  1  0
  6 48  1  0
  8 49  1  0
  9 10  1  0
  9 50  1  0
 10 11  1  0
 10 15  2  0
 11 12  2  0
 11 28  1  0
 12 13  1  0
 12 51  1  0
 13 14  2  0
 13 52  1  0
 14 15  1  0
 14 16  1  0
 15 53  1  0
 16 17  1  0
 17 18  1  0
 17 54  1  0
 17 55  1  0
 18 19  1  0
 18 23  1  0
 18 56  1  0
 19 20  1  0
 19 57  1  0
 19 58  1  0
 20 21  1  0
 20 59  1  0
 20 60  1  0
 21 22  1  0
 21 24  1  0
 21 61  1  0
 22 23  1  0
 22 62  1  0
 22 63  1  0
 23 64  1  0
 23 65  1  0
 24 25  1  0
 24 26  1  0
 24 27  1  0
 28 29  1  0
 29 30  1  0
 29 66  1  0
 29 67  1  0
 30 31  1  0
 30 35  2  0
 31 32  2  0
 31 68  1  0
 32 33  1  0
 32 69  1  0
 33 34  2  0
 33 36  1  0
 34 35  1  0
 34 70  1  0
 35 71  1  0
 36 37  1  0
 36 38  1  0
 36 39  1  0
M  END
> <Name>
CHEMBL3397727

> <Clean Energy>
24.767

> <chembl_id>
CHEMBL3397727

> <chembl_pref_name>
None

> <efficacy>
1.500474834

> <Forcefield>
MMFF

> <ForcefieldBase>
MMFF

> <ForcefieldFFML>
<?xml version="1.0" encoding="UTF-8"?>
<!DOCTYPE ffml SYSTEM "Ffml.dtd">
<ffml version="1.0">
<forcefield name="MMFF" derivedFrom="MMFF" base="MMFF">
<atomTypes>
<atomType
name="C100"
element="C"
mass="12.011"
annotation=""/>
<atomType
name="O101"
element="O"
mass="16"
annotation=""/>
<atomType
name="F102"
element="F"
mass="18.998"
annotation=""/>
<atomType
name="H103"
element="H"
mass="1.008"
annotation=""/>
</atomTypes>
<parameters>
</parameters>
</forcefield>
</ffml>

> <Initial Potential Energy>
171.50647

> <Initial RMS Gradient>
23.26745

> <Minimization Criteria>
CONJUG> Minimization exiting with gradient tolerance ( 0.0100000) satisfied.

> <CHARMm Energy>
77.95414

> <Potential Energy>
77.95414

> <RMS Gradient>
0.00986

> <Bond Energy>
7.3847

> <Angle Energy>
17.16147

> <STRBend>
0.17087

> <Dihedral Energy>
6.77445

> <OOPLane>
0.14313

> <Van der Waals Energy>
61.69051

> <Electrostatic Energy>
-15.37099

> <Hydrogen Bond Energy>
0

> <Solvation Free Energy>
0

> <HasGasteigerCharges>
true

> <REMARK99>
REMARK  99  MacroMolecule created from Mol2 file
REMARK  99  CHEMBL3397727
REMARK  99  PROTEIN
REMARK  99  GASTEIGER
REMARK  99
REMARK  99

$$$$
CHEMBL394031
  SciTegic05292516403D

 65 67  0  0  0  0            999 V2000
    3.8948   -3.6037   -3.1204 C   0  0
    3.0345   -4.6834   -3.3026 C   0  0
    2.7144   -5.5109   -2.2275 C   0  0
    3.2611   -5.2684   -0.9671 C   0  0
    4.1399   -4.1927   -0.7713 C   0  0
    4.4533   -3.3658   -1.8643 C   0  0
    4.7543   -3.9475    0.5991 C   0  0  1  0  0  0
    6.2710   -4.1821    0.5678 C   0  0
    4.4702   -2.5659    0.9696 O   0  0
    3.3168   -2.1902    1.5872 C   0  0
    2.9513   -0.8952    1.3625 N   0  0
    2.4265   -3.1652    2.5953 S   0  0
    3.6259    0.0063    0.4548 C   0  0
    2.8749    1.3065    0.3310 C   0  0
    3.2350    2.4178    1.1053 C   0  0
    2.5175    3.6130    1.0090 C   0  0
    1.4261    3.7087    0.1466 C   0  0
    1.0507    2.6064   -0.6200 C   0  0
    1.7688    1.4107   -0.5263 C   0  0
    6.8852   -4.1994    1.9735 C   0  0
    8.2593   -4.8286    1.9410 C   0  0
    8.4124   -6.1983    2.1986 C   0  0
    9.6599   -6.8107    2.0681 C   0  0
   10.7731   -6.0616    1.6673 C   0  0
   10.6301   -4.6860    1.4471 C   0  0
    9.3822   -4.0755    1.5805 C   0  0
   12.0958   -6.7430    1.4119 C   0  0
   12.1023   -7.5027    0.0801 C   0  0  2  0  0  0
   13.3590   -8.3652    0.0157 C   0  0
   14.1947   -7.9791   -0.9888 O   0  0
   13.6249   -9.2917    0.7680 O   0  0
   12.2098   -6.5876   -1.0428 O   0  0
   10.9854   -6.4910   -1.7772 C   0  0
   11.1612   -5.4398   -2.8545 C   0  0
    4.1116   -2.9406   -3.9552 H   0  0
    2.5858   -4.8684   -4.2779 H   0  0
    2.0132   -6.3317   -2.3707 H   0  0
    2.9967   -5.9285   -0.1423 H   0  0
    5.1516   -2.5408   -1.7370 H   0  0
    4.3233   -4.6444    1.3245 H   0  0
    6.4715   -5.1405    0.0694 H   0  0
    6.7709   -3.4047   -0.0245 H   0  0
    2.1105   -0.5678    1.8289 H   0  0
    4.6438    0.1726    0.8258 H   0  0
    3.7172   -0.4766   -0.5251 H   0  0
    4.0770    2.3569    1.7922 H   0  0
    2.8125    4.4676    1.6127 H   0  0
    0.8672    4.6402    0.0757 H   0  0
    0.1969    2.6754   -1.2894 H   0  0
    1.4603    0.5536   -1.1223 H   0  0
    6.9473   -3.1819    2.3777 H   0  0
    6.2500   -4.7656    2.6660 H   0  0
    7.5503   -6.7981    2.4826 H   0  0
    9.7552   -7.8789    2.2602 H   0  0
   11.4835   -4.0830    1.1427 H   0  0
    9.2888   -3.0112    1.3778 H   0  0
   12.8997   -5.9956    1.4221 H   0  0
   12.3000   -7.4225    2.2493 H   0  0
   11.2430   -8.1730   -0.0454 H   0  0
   13.7394   -7.2173   -1.4315 H   0  0
   10.7628   -7.4602   -2.2362 H   0  0
   10.1602   -6.2099   -1.1173 H   0  0
   10.2499   -5.3356   -3.4503 H   0  0
   11.9916   -5.7017   -3.5187 H   0  0
   11.4042   -4.4698   -2.4084 H   0  0
  1  2  2  0
  1 35  1  0
  2  3  1  0
  2 36  1  0
  3  4  2  0
  3 37  1  0
  4  5  1  0
  4 38  1  0
  5  6  2  0
  5  7  1  0
  6  1  1  0
  6 39  1  0
  7  8  1  0
  7  9  1  0
  7 40  1  0
  8 20  1  0
  8 41  1  0
  8 42  1  0
  9 10  1  0
 10 11  1  0
 10 12  2  0
 11 13  1  0
 11 43  1  0
 13 14  1  0
 13 44  1  0
 13 45  1  0
 14 15  2  0
 15 16  1  0
 15 46  1  0
 16 17  2  0
 16 47  1  0
 17 18  1  0
 17 48  1  0
 18 19  2  0
 18 49  1  0
 19 14  1  0
 19 50  1  0
 20 21  1  0
 20 51  1  0
 20 52  1  0
 21 22  2  0
 22 23  1  0
 22 53  1  0
 23 24  2  0
 23 54  1  0
 24 25  1  0
 24 27  1  0
 25 26  2  0
 25 55  1  0
 26 21  1  0
 26 56  1  0
 27 28  1  0
 27 57  1  0
 27 58  1  0
 28 29  1  0
 28 32  1  0
 28 59  1  0
 29 30  1  0
 29 31  2  0
 30 60  1  0
 32 33  1  0
 33 34  1  0
 33 61  1  0
 33 62  1  0
 34 63  1  0
 34 64  1  0
 34 65  1  0
M  END
> <Name>
CHEMBL394031

> <Clean Energy>
31.1364

> <chembl_id>
CHEMBL394031

> <chembl_pref_name>
None

> <efficacy>
1.13

> <Forcefield>
MMFF

> <ForcefieldBase>
MMFF

> <ForcefieldFFML>
<?xml version="1.0" encoding="UTF-8"?>
<!DOCTYPE ffml SYSTEM "Ffml.dtd">
<ffml version="1.0">
<forcefield name="MMFF" derivedFrom="MMFF" base="MMFF">
<atomTypes>
<atomType
name="C100"
element="C"
mass="12.011"
annotation=""/>
<atomType
name="O101"
element="O"
mass="16"
annotation=""/>
<atomType
name="N102"
element="N"
mass="14.007"
annotation=""/>
<atomType
name="S103"
element="S"
mass="32.066"
annotation=""/>
<atomType
name="H104"
element="H"
mass="1.008"
annotation=""/>
</atomTypes>
<parameters>
</parameters>
</forcefield>
</ffml>

> <Initial Potential Energy>
212.26799

> <Initial RMS Gradient>
32.50935

> <Minimization Criteria>
STEEPD> Minimization exiting with gradient tolerance ( 3.0000000) satisfied.

> <CHARMm Energy>
22.75558

> <Potential Energy>
22.75558

> <RMS Gradient>
0.05989

> <Bond Energy>
7.35157

> <Angle Energy>
10.34089

> <STRBend>
0.48859

> <Dihedral Energy>
4.13514

> <OOPLane>
0.12894

> <Van der Waals Energy>
66.67504

> <Electrostatic Energy>
-66.3646

> <Hydrogen Bond Energy>
0

> <Solvation Free Energy>
0

> <HasGasteigerCharges>
true

> <REMARK99>
REMARK  99  MacroMolecule created from Mol2 file
REMARK  99  CHEMBL394031
REMARK  99  PROTEIN
REMARK  99  GASTEIGER
REMARK  99
REMARK  99

$$$$
CHEMBL3597403
  SciTegic05292516403D

 70 74  0  0  0  0            999 V2000
   -1.4710    1.1276   -0.1119 C   0  0
   -1.5491   -0.2552   -0.2464 C   0  0
   -0.4351   -1.0072   -0.6142 C   0  0
   -0.2533    1.7926   -0.3133 C   0  0
    0.8955    1.0550   -0.6778 C   0  0
    0.7771   -0.3314   -0.8248 C   0  0
    2.0223   -0.8042   -1.1778 N   0  0
    2.9068    0.2379   -1.2861 C   0  0
    2.2579    1.4103   -0.9524 C   0  0
    2.8795    2.7749   -0.9045 C   0  0
    4.1147    2.7934   -0.0248 C   0  0
    3.8565    2.5636    1.2878 O   0  0
    5.2581    2.9449   -0.4389 O   0  0
   -2.6516    1.7285    0.2367 O   0  0
   -2.7286    3.1265   -0.0148 C   0  0
   -4.1571    3.5908    0.2248 C   0  0
   -4.2528    5.0790   -0.0597 C   0  0
   -5.5462    5.5577    0.3213 O   0  0
   -5.5433    6.8938    0.6445 C   0  0
   -6.4011    7.2834    1.6692 C   0  0
   -6.4043    8.6094    2.1044 C   0  0
   -5.5467    9.5443    1.5200 C   0  0
   -4.6900    9.1614    0.4908 C   0  0
   -4.7337    7.8479    0.0175 C   0  0
   -3.8457   10.1350    0.0171 O   0  0
   -2.6219    9.6316   -0.5386 C   0  0
   -1.5423   10.6911   -0.5173 C   0  0
   -0.2379   10.3159   -0.1519 C   0  0
    0.8125   11.2281   -0.2027 C   0  0
    0.5648   12.5277   -0.6220 C   0  0
   -0.7244   12.9288   -0.9767 C   0  0
   -1.7791   12.0102   -0.9284 C   0  0
    2.3616   -2.1969   -1.4344 C   0  0
    3.0277   -2.8353   -0.2415 C   0  0
    4.3975   -3.1361   -0.2767 C   0  0
    5.0199   -3.7385    0.8175 C   0  0
    4.2833   -4.0469    1.9588 C   0  0
    2.9238   -3.7463    2.0105 C   0  0
    2.2986   -3.1418    0.9182 C   0  0
    1.8670   13.6447   -0.7077 Cl  0  0
   -2.5014   -0.7520   -0.0765 H   0  0
   -0.5209   -2.0838   -0.7262 H   0  0
   -0.1657    2.8652   -0.1970 H   0  0
    3.9388    0.0573   -1.5637 H   0  0
    3.1722    3.0795   -1.9160 H   0  0
    2.1822    3.5329   -0.5331 H   0  0
    2.8968    2.4704    1.4613 H   0  0
   -2.0603    3.6604    0.6717 H   0  0
   -2.4443    3.3430   -1.0527 H   0  0
   -4.8606    3.0318   -0.4041 H   0  0
   -4.4594    3.3742    1.2569 H   0  0
   -3.4624    5.5902    0.5068 H   0  0
   -4.1054    5.2608   -1.1312 H   0  0
   -7.0545    6.5537    2.1407 H   0  0
   -7.0669    8.9156    2.9092 H   0  0
   -5.5456   10.5722    1.8763 H   0  0
   -4.1249    7.5586   -0.8304 H   0  0
   -2.2681    8.7660    0.0370 H   0  0
   -2.7909    9.3325   -1.5801 H   0  0
   -0.0257    9.2987    0.1684 H   0  0
    1.8138   10.9087    0.0736 H   0  0
   -0.9117   13.9528   -1.2969 H   0  0
   -2.7813   12.3271   -1.2174 H   0  0
    1.4567   -2.7475   -1.7109 H   0  0
    3.0172   -2.2123   -2.3137 H   0  0
    4.9935   -2.9018   -1.1562 H   0  0
    6.0818   -3.9677    0.7798 H   0  0
    4.7715   -4.5198    2.8079 H   0  0
    2.3524   -3.9846    2.9041 H   0  0
    1.2383   -2.9067    0.9843 H   0  0
  1  2  2  0
  1 14  1  0
  2  3  1  0
  2 41  1  0
  3  6  2  0
  3 42  1  0
  4  1  1  0
  4 43  1  0
  5  4  2  0
  5  6  1  0
  6  7  1  0
  7  8  1  0
  7 33  1  0
  8  9  2  0
  8 44  1  0
  9  5  1  0
  9 10  1  0
 10 11  1  0
 10 45  1  0
 10 46  1  0
 11 12  1  0
 11 13  2  0
 12 47  1  0
 14 15  1  0
 15 16  1  0
 15 48  1  0
 15 49  1  0
 16 17  1  0
 16 50  1  0
 16 51  1  0
 17 18  1  0
 17 52  1  0
 17 53  1  0
 18 19  1  0
 19 20  2  0
 20 21  1  0
 20 54  1  0
 21 22  2  0
 21 55  1  0
 22 23  1  0
 22 56  1  0
 23 24  2  0
 23 25  1  0
 24 19  1  0
 24 57  1  0
 25 26  1  0
 26 27  1  0
 26 58  1  0
 26 59  1  0
 27 28  2  0
 28 29  1  0
 28 60  1  0
 29 30  2  0
 29 61  1  0
 30 31  1  0
 30 40  1  0
 31 32  2  0
 31 62  1  0
 32 27  1  0
 32 63  1  0
 33 34  1  0
 33 64  1  0
 33 65  1  0
 34 35  2  0
 35 36  1  0
 35 66  1  0
 36 37  2  0
 36 67  1  0
 37 38  1  0
 37 68  1  0
 38 39  2  0
 38 69  1  0
 39 34  1  0
 39 70  1  0
M  END
> <Name>
CHEMBL3597403

> <Clean Energy>
28.4793

> <chembl_id>
CHEMBL3597403

> <chembl_pref_name>
None

> <efficacy>
1.005

> <Forcefield>
MMFF

> <ForcefieldBase>
MMFF

> <ForcefieldFFML>
<?xml version="1.0" encoding="UTF-8"?>
<!DOCTYPE ffml SYSTEM "Ffml.dtd">
<ffml version="1.0">
<forcefield name="MMFF" derivedFrom="MMFF" base="MMFF">
<atomTypes>
<atomType
name="C100"
element="C"
mass="12.011"
annotation=""/>
<atomType
name="N101"
element="N"
mass="14.007"
annotation=""/>
<atomType
name="O102"
element="O"
mass="16"
annotation=""/>
<atomType
name="Cl103"
element="Cl"
mass="35.453"
annotation=""/>
<atomType
name="H104"
element="H"
mass="1.008"
annotation=""/>
</atomTypes>
<parameters>
</parameters>
</forcefield>
</ffml>

> <Initial Potential Energy>
240.02299

> <Initial RMS Gradient>
34.18128

> <Minimization Criteria>
STEEPD> Minimization exiting with gradient tolerance ( 3.0000000) satisfied.

> <CHARMm Energy>
90.70962

> <Potential Energy>
90.70962

> <RMS Gradient>
0.03618

> <Bond Energy>
6.9551

> <Angle Energy>
16.83611

> <STRBend>
-0.04901

> <Dihedral Energy>
4.12603

> <OOPLane>
0.10202

> <Van der Waals Energy>
82.60992

> <Electrostatic Energy>
-19.87054

> <Hydrogen Bond Energy>
0

> <Solvation Free Energy>
0

> <HasGasteigerCharges>
true

> <REMARK99>
REMARK  99  MacroMolecule created from Mol2 file
REMARK  99  CHEMBL3597403
REMARK  99  PROTEIN
REMARK  99  GASTEIGER
REMARK  99
REMARK  99

$$$$
CHEMBL3263244
  SciTegic05292516403D

 51 53  0  0  0  0            999 V2000
   10.0090  -27.9025    0.3861 C   0  0
    9.7207  -29.1422   -0.1731 C   0  0
   10.7416  -30.0562   -0.4423 C   0  0
   12.0787  -29.7326   -0.1729 C   0  0
   12.3762  -28.4581    0.3671 C   0  0
   11.3333  -27.5603    0.6588 C   0  0
   13.7938  -28.0721    0.6652 C   0  0
   14.1084  -26.7353    0.5488 N   0  0
   14.6247  -28.9311    0.9496 O   0  0
   15.4315  -26.2106    0.8336 C   0  0
   16.3813  -26.4136   -0.3454 C   0  0
   17.7261  -25.7194   -0.1185 C   0  0
   18.6825  -25.9838   -1.2811 C   0  0
   13.1300  -30.6654   -0.3542 N   0  0
   13.0535  -31.9234   -0.9105 C   0  0
   14.1560  -32.8831   -0.5748 C   0  0
   12.1323  -32.3263   -1.6179 O   0  0
   14.0853  -34.1758   -1.1206 C   0  0
   15.0172  -35.1523   -0.7619 C   0  0
   15.1785  -32.5886    0.3396 C   0  0
   16.1118  -33.5672    0.7191 C   0  0
   16.0248  -34.8633    0.1666 C   0  0
   16.9311  -35.8464    0.5829 C   0  0
   17.9077  -35.5618    1.5378 C   0  0
   18.0043  -34.2813    2.0705 C   0  0
   17.1134  -33.2885    1.6621 C   0  0
   19.9497  -25.1652   -1.1907 C   0  0
   20.7582  -25.3359   -2.2727 O   0  0
   20.2485  -24.3931   -0.2917 O   0  0
    9.1993  -27.2160    0.6258 H   0  0
    8.6894  -29.4213   -0.3780 H   0  0
   10.4455  -31.0284   -0.8316 H   0  0
   11.5326  -26.6030    1.1322 H   0  0
   13.4178  -26.0841    0.1995 H   0  0
   15.3105  -25.1447    1.0536 H   0  0
   15.8230  -26.7050    1.7295 H   0  0
   16.5402  -27.4861   -0.5118 H   0  0
   15.9180  -26.0215   -1.2597 H   0  0
   17.5643  -24.6403   -0.0046 H   0  0
   18.1791  -26.0717    0.8163 H   0  0
   18.9565  -27.0443   -1.3007 H   0  0
   18.1875  -25.7261   -2.2246 H   0  0
   14.0225  -30.3540    0.0235 H   0  0
   13.2768  -34.4511   -1.7998 H   0  0
   14.9235  -36.1546   -1.1824 H   0  0
   15.2508  -31.6162    0.8163 H   0  0
   16.8657  -36.8579    0.1857 H   0  0
   18.5790  -36.3499    1.8711 H   0  0
   18.7710  -34.0426    2.8026 H   0  0
   17.1993  -32.2953    2.0988 H   0  0
   20.3813  -26.0186   -2.8667 H   0  0
  1  2  2  0
  1 30  1  0
  2  3  1  0
  2 31  1  0
  3  4  2  0
  3 32  1  0
  4  5  1  0
  4 14  1  0
  5  6  2  0
  5  7  1  0
  6  1  1  0
  6 33  1  0
  7  8  1  0
  7  9  2  0
  8 10  1  0
  8 34  1  0
 10 11  1  0
 10 35  1  0
 10 36  1  0
 11 12  1  0
 11 37  1  0
 11 38  1  0
 12 13  1  0
 12 39  1  0
 12 40  1  0
 13 27  1  0
 13 41  1  0
 13 42  1  0
 14 15  1  0
 14 43  1  0
 15 16  1  0
 15 17  2  0
 16 18  2  0
 18 19  1  0
 18 44  1  0
 19 22  2  0
 19 45  1  0
 20 16  1  0
 20 46  1  0
 21 20  2  0
 21 22  1  0
 22 23  1  0
 23 24  2  0
 23 47  1  0
 24 25  1  0
 24 48  1  0
 25 26  2  0
 25 49  1  0
 26 21  1  0
 26 50  1  0
 27 28  1  0
 27 29  2  0
 28 51  1  0
M  END
> <Name>
CHEMBL3263244

> <Clean Energy>
-3.31611

> <chembl_id>
CHEMBL3263244

> <chembl_pref_name>
None

> <efficacy>
2.554605888

> <Forcefield>
MMFF

> <ForcefieldBase>
MMFF

> <ForcefieldFFML>
<?xml version="1.0" encoding="UTF-8"?>
<!DOCTYPE ffml SYSTEM "Ffml.dtd">
<ffml version="1.0">
<forcefield name="MMFF" derivedFrom="MMFF" base="MMFF">
<atomTypes>
<atomType
name="C100"
element="C"
mass="12.011"
annotation=""/>
<atomType
name="N101"
element="N"
mass="14.007"
annotation=""/>
<atomType
name="O102"
element="O"
mass="16"
annotation=""/>
<atomType
name="H103"
element="H"
mass="1.008"
annotation=""/>
</atomTypes>
<parameters>
</parameters>
</forcefield>
</ffml>

> <Initial Potential Energy>
217.86093

> <Initial RMS Gradient>
96.57897

> <Minimization Criteria>
CONJUG> Minimization exiting with gradient tolerance ( 0.0100000) satisfied.

> <CHARMm Energy>
5.80526

> <Potential Energy>
5.80526

> <RMS Gradient>
0.00892

> <Bond Energy>
6.98411

> <Angle Energy>
8.86497

> <STRBend>
1.12026

> <Dihedral Energy>
-4.35942

> <OOPLane>
0.22637

> <Van der Waals Energy>
65.50777

> <Electrostatic Energy>
-72.5388

> <Hydrogen Bond Energy>
0

> <Solvation Free Energy>
0

> <HasGasteigerCharges>
true

> <REMARK99>
REMARK  99  MacroMolecule created from Mol2 file
REMARK  99  CHEMBL3263244
REMARK  99  PROTEIN
REMARK  99  GASTEIGER
REMARK  99
REMARK  99

$$$$
CHEMBL3335655
  SciTegic05292516403D

 58 60  0  0  0  0            999 V2000
    5.8566  -11.9216    0.2858 C   0  0
    5.7622  -13.2277    0.7552 C   0  0
    6.8754  -14.0785    0.7170 C   0  0
    8.1069  -13.6405    0.2116 C   0  0
    8.1886  -12.3052   -0.2333 C   0  0
    7.0702  -11.4567   -0.2107 C   0  0
    9.4514  -11.6971   -0.7092 C   0  0
   10.4291  -11.6022    0.2606 N   0  0
    9.5313  -11.3754   -1.8856 O   0  0
   11.6737  -10.9324    0.1855 C   0  0
    9.2393  -14.4947    0.0987 N   0  0
    9.3608  -15.7912    0.5769 C   0  0
   10.6509  -16.4852    0.2798 C   0  0
    8.5119  -16.4090    1.2095 O   0  0
   10.6483  -17.8825    0.2094 C   0  0
   11.8325  -18.5841   -0.0434 C   0  0
   13.0570  -17.9146   -0.2263 C   0  0
   13.0432  -16.5118   -0.1392 C   0  0
   11.8593  -15.8031    0.1143 C   0  0
   14.3429  -18.7205   -0.4910 C   0  0
   14.1780  -19.5576   -1.7779 C   0  0
   15.6019  -17.8432   -0.6754 C   0  0
   14.6159  -19.6658    0.6987 C   0  0
   12.6725  -11.4445    1.0312 C   0  0
   13.9652  -10.9023    1.0451 C   0  0
   14.2670   -9.7984    0.2514 C   0  0
   13.2738   -9.2582   -0.5643 C   0  0
   11.9665   -9.7963   -0.5954 C   0  0
   14.9684  -11.5185    1.9445 C   0  0
   16.2163  -11.5379    1.4351 O   0  0
   14.6691  -12.0098    3.0186 O   0  0
   10.9611   -9.0421   -1.4251 C   0  0
    4.9874  -11.2688    0.3099 H   0  0
    4.8144  -13.5984    1.1438 H   0  0
    6.7271  -15.0949    1.0706 H   0  0
    7.1478  -10.4331   -0.5732 H   0  0
   10.2600  -12.1262    1.1144 H   0  0
   10.0097  -14.1311   -0.4495 H   0  0
    9.7230  -18.4392    0.3561 H   0  0
   11.7841  -19.6722   -0.0861 H   0  0
   13.9565  -15.9328   -0.2517 H   0  0
   11.9229  -14.7240    0.2091 H   0  0
   15.0960  -20.1103   -2.0101 H   0  0
   13.9472  -18.9179   -2.6380 H   0  0
   13.3737  -20.2965   -1.6921 H   0  0
   16.4886  -18.4595   -0.8669 H   0  0
   15.8129  -17.2471    0.2200 H   0  0
   15.4958  -17.1587   -1.5250 H   0  0
   15.5496  -20.2219    0.5551 H   0  0
   13.8193  -20.4062    0.8311 H   0  0
   14.7023  -19.1043    1.6365 H   0  0
   12.4631  -12.2973    1.6762 H   0  0
   15.2423   -9.3161    0.2869 H   0  0
   13.5108   -8.3736   -1.1576 H   0  0
   16.2906  -11.2647    0.5021 H   0  0
    9.9723   -9.0457   -0.9577 H   0  0
   10.9154   -9.4505   -2.4383 H   0  0
   11.2410   -7.9851   -1.5088 H   0  0
  1  2  2  0
  1 33  1  0
  2  3  1  0
  2 34  1  0
  3  4  2  0
  3 35  1  0
  4  5  1  0
  4 11  1  0
  5  6  2  0
  5  7  1  0
  6  1  1  0
  6 36  1  0
  7  8  1  0
  7  9  2  0
  8 10  1  0
  8 37  1  0
 10 24  2  0
 11 12  1  0
 11 38  1  0
 12 13  1  0
 12 14  2  0
 13 15  2  0
 15 16  1  0
 15 39  1  0
 16 17  2  0
 16 40  1  0
 17 18  1  0
 17 20  1  0
 18 19  2  0
 18 41  1  0
 19 13  1  0
 19 42  1  0
 20 21  1  0
 20 22  1  0
 20 23  1  0
 21 43  1  0
 21 44  1  0
 21 45  1  0
 22 46  1  0
 22 47  1  0
 22 48  1  0
 23 49  1  0
 23 50  1  0
 23 51  1  0
 24 25  1  0
 24 52  1  0
 25 26  2  0
 25 29  1  0
 26 27  1  0
 26 53  1  0
 27 28  2  0
 27 54  1  0
 28 10  1  0
 28 32  1  0
 29 30  1  0
 29 31  2  0
 30 55  1  0
 32 56  1  0
 32 57  1  0
 32 58  1  0
M  END
> <Name>
CHEMBL3335655

> <Clean Energy>
24.6348

> <chembl_id>
CHEMBL3335655

> <chembl_pref_name>
None

> <efficacy>
1.547958215

> <Forcefield>
MMFF

> <ForcefieldBase>
MMFF

> <ForcefieldFFML>
<?xml version="1.0" encoding="UTF-8"?>
<!DOCTYPE ffml SYSTEM "Ffml.dtd">
<ffml version="1.0">
<forcefield name="MMFF" derivedFrom="MMFF" base="MMFF">
<atomTypes>
<atomType
name="C100"
element="C"
mass="12.011"
annotation=""/>
<atomType
name="N101"
element="N"
mass="14.007"
annotation=""/>
<atomType
name="O102"
element="O"
mass="16"
annotation=""/>
<atomType
name="H103"
element="H"
mass="1.008"
annotation=""/>
</atomTypes>
<parameters>
</parameters>
</forcefield>
</ffml>

> <Initial Potential Energy>
228.90367

> <Initial RMS Gradient>
40.96494

> <Minimization Criteria>
STEEPD> Minimization exiting with gradient tolerance ( 3.0000000) satisfied.

> <CHARMm Energy>
89.21326

> <Potential Energy>
89.21326

> <RMS Gradient>
0.07341

> <Bond Energy>
9.289

> <Angle Energy>
16.08082

> <STRBend>
2.15021

> <Dihedral Energy>
21.00692

> <OOPLane>
0.18801

> <Van der Waals Energy>
74.55467

> <Electrostatic Energy>
-34.05637

> <Hydrogen Bond Energy>
0

> <Solvation Free Energy>
0

> <HasGasteigerCharges>
true

> <REMARK99>
REMARK  99  MacroMolecule created from Mol2 file
REMARK  99  CHEMBL3335655
REMARK  99  PROTEIN
REMARK  99  GASTEIGER
REMARK  99
REMARK  99

$$$$
CHEMBL186179
  SciTegic05292516403D

 66 69  0  0  0  0            999 V2000
   -4.4256    1.2964    0.3935 N   0  0
   -5.3418    0.4084    0.0502 C   0  0
    8.0501    0.0386    0.3310 C   0  0
   -4.8484   -0.8700   -0.0347 O   0  0
   -3.2622    0.5667    0.5550 C   0  0
   -3.5309   -0.7641    0.3075 C   0  0
    6.7130    0.3299    0.0592 N   0  0
    8.9212    0.6644   -0.5469 O   0  0
    6.3562    0.4650   -2.4202 C   0  0
    6.3253    1.1947   -1.0766 C   0  0
    8.3657   -0.7304    1.2322 O   0  0
    5.7156   -0.2956    0.9364 C   0  0
   -6.7545    0.6009   -0.2539 C   0  0
    6.3282    1.0300   -3.5047 O   0  0
   -2.0124    1.2526    0.9873 C   0  0
   10.2604    0.2864   -0.4156 C   0  0
    4.2953    0.1945    0.8328 C   0  0
    1.6158    1.0690    0.7267 C   0  0
   12.9474   -0.4264   -0.2620 C   0  0
    6.4523   -0.8836   -2.3222 O   0  0
   -0.7247    0.7182    0.3664 C   0  0
   10.8261   -0.4627   -1.4424 C   0  0
   11.0218    0.7128    0.6699 C   0  0
    3.8809    1.3097    1.5724 C   0  0
    3.3613   -0.4535    0.0106 C   0  0
   12.1701   -0.8224   -1.3566 C   0  0
    2.5539    1.7418    1.5134 C   0  0
   12.3678    0.3463    0.7490 C   0  0
    2.0313   -0.0154   -0.0447 C   0  0
    0.3450    1.5714    0.7890 O   0  0
   -2.7575   -2.0179    0.3349 C   0  0
   14.2485   -0.8491   -0.3040 O   0  0
   -7.3144    1.8852   -0.1640 C   0  0
   -7.5800   -0.4652   -0.6398 C   0  0
   15.0644   -0.5198    0.8126 C   0  0
   -8.9293   -0.2518   -0.9296 C   0  0
   -8.6634    2.0998   -0.4527 C   0  0
   -9.4676    1.0298   -0.8366 C   0  0
    7.0484    2.0152   -1.1398 H   0  0
    5.3367    1.6306   -0.9302 H   0  0
    5.7438   -1.3759    0.7418 H   0  0
    6.0535   -0.1861    1.9759 H   0  0
   -2.0952    2.3236    0.7601 H   0  0
   -1.9359    1.1946    2.0807 H   0  0
    6.3088   -1.1611   -1.3966 H   0  0
   -0.5536   -0.3078    0.7111 H   0  0
   -0.7859    0.7324   -0.7281 H   0  0
   10.2316   -0.7666   -2.2988 H   0  0
   10.5772    1.3159    1.4555 H   0  0
    4.5858    1.8417    2.2097 H   0  0
    3.6551   -1.3140   -0.5878 H   0  0
   12.6193   -1.4156   -2.1490 H   0  0
    2.2401    2.6012    2.1019 H   0  0
   12.9367    0.6807    1.6098 H   0  0
    1.3419   -0.5387   -0.6996 H   0  0
   -2.1987   -2.1060    1.2716 H   0  0
   -2.0482   -2.0478   -0.4976 H   0  0
   -3.4123   -2.8912    0.2529 H   0  0
   -6.6904    2.7271    0.1337 H   0  0
   -7.1761   -1.4722   -0.7195 H   0  0
   16.0556   -0.9505    0.6406 H   0  0
   14.6682   -0.9560    1.7357 H   0  0
   15.1851    0.5644    0.9063 H   0  0
   -9.5579   -1.0862   -1.2282 H   0  0
   -9.0856    3.0990   -0.3790 H   0  0
  -10.5162    1.1963   -1.0636 H   0  0
  2  1  2  0
  3  7  1  0
  4  2  1  0
  5  1  1  0
  6  4  1  0
  6  5  2  0
  7 12  1  0
  8  3  1  0
  9 10  1  0
 10  7  1  0
 10 39  1  0
 10 40  1  0
 11  3  2  0
 12 17  1  0
 12 41  1  0
 12 42  1  0
 13  2  1  0
 14  9  2  0
 15  5  1  0
 15 43  1  0
 15 44  1  0
 16  8  1  0
 17 25  2  0
 18 30  1  0
 19 26  2  0
 19 28  1  0
 20  9  1  0
 20 45  1  0
 21 15  1  0
 21 46  1  0
 21 47  1  0
 22 16  2  0
 22 48  1  0
 23 16  1  0
 23 49  1  0
 24 17  1  0
 24 27  2  0
 24 50  1  0
 25 29  1  0
 25 51  1  0
 26 22  1  0
 26 52  1  0
 27 18  1  0
 27 53  1  0
 28 23  2  0
 28 54  1  0
 29 18  2  0
 29 55  1  0
 30 21  1  0
 31  6  1  0
 31 56  1  0
 31 57  1  0
 31 58  1  0
 32 19  1  0
 33 13  2  0
 33 59  1  0
 34 13  1  0
 34 60  1  0
 35 32  1  0
 35 61  1  0
 35 62  1  0
 35 63  1  0
 36 34  2  0
 36 64  1  0
 37 33  1  0
 37 65  1  0
 38 36  1  0
 38 37  2  0
 38 66  1  0
M  END
> <Name>
CHEMBL186179

> <Clean Energy>
50.8647

> <chembl_id>
CHEMBL186179

> <chembl_pref_name>
MURAGLITAZAR

> <efficacy>
1.14

> <Forcefield>
MMFF

> <ForcefieldBase>
MMFF

> <ForcefieldFFML>
<?xml version="1.0" encoding="UTF-8"?>
<!DOCTYPE ffml SYSTEM "Ffml.dtd">
<ffml version="1.0">
<forcefield name="MMFF" derivedFrom="MMFF" base="MMFF">
<atomTypes>
<atomType
name="N100"
element="N"
mass="14.007"
annotation=""/>
<atomType
name="C101"
element="C"
mass="12.011"
annotation=""/>
<atomType
name="O102"
element="O"
mass="16"
annotation=""/>
<atomType
name="H103"
element="H"
mass="1.008"
annotation=""/>
</atomTypes>
<parameters>
</parameters>
</forcefield>
</ffml>

> <Initial Potential Energy>
184.86394

> <Initial RMS Gradient>
28.66056

> <Minimization Criteria>
STEEPD> Minimization exiting with gradient tolerance ( 3.0000000) satisfied.

> <CHARMm Energy>
51.7576

> <Potential Energy>
51.7576

> <RMS Gradient>
0.02074

> <Bond Energy>
6.9278

> <Angle Energy>
25.40105

> <STRBend>
0.12808

> <Dihedral Energy>
3.04481

> <OOPLane>
0.10894

> <Van der Waals Energy>
71.12675

> <Electrostatic Energy>
-54.97983

> <Hydrogen Bond Energy>
0

> <Solvation Free Energy>
0

> <HasGasteigerCharges>
true

> <REMARK99>
REMARK  99  MacroMolecule created from Mol2 file
REMARK  99  CHEMBL186179
REMARK  99  PROTEIN
REMARK  99  GASTEIGER
REMARK  99
REMARK  99

$$$$
CHEMBL420973
  SciTegic05292516403D

 66 69  0  0  0  0            999 V2000
    3.1690   -2.4619   -0.1603 C   0  0
   14.2892   -1.6164    0.1536 C   0  0
    2.0910   -3.4839   -0.1773 C   0  0
   12.8482   -2.1293    0.0749 C   0  0  2  0  0  0
   -0.0143   -5.3944   -0.1801 C   0  0
    4.4460   -2.8969   -0.1543 C   0  0
    2.8846   -1.0112   -0.1450 C   0  0
   14.6159   -0.4392    0.1474 O   0  0
   12.0941   -1.6597    1.3238 C   0  0
    1.0637   -3.4141   -1.1237 C   0  0
    2.0494   -4.5073    0.7787 C   0  0
    1.0141   -5.4490    0.7741 C   0  0
    0.0310   -4.3602   -1.1274 C   0  0
   -1.1062   -6.3849   -0.1824 C   0  0
   10.6027   -1.8852    1.2311 C   0  0
   15.1911   -2.6307    0.2352 O   0  0
    7.8396   -2.3565    0.9823 C   0  0
    5.7087   -2.0842   -0.0680 C   0  0
   12.9427   -3.5755    0.0413 O   0  0
    9.7956   -1.0300    0.4673 C   0  0
   10.0079   -2.9692    1.8864 C   0  0
    8.4207   -1.2623    0.3457 C   0  0
    8.6364   -3.1970    1.7630 C   0  0
    6.5205   -2.7047    0.9344 O   0  0
    2.9307   -0.2555   -1.3249 C   0  0
    2.5270   -0.3893    1.0564 C   0  0
   -2.4538   -5.9858   -0.2274 C   0  0
   -0.8330   -7.7626   -0.1375 C   0  0
   12.0527   -4.1488   -0.9226 C   0  0
   12.1385   -5.6573   -0.8048 C   0  0
    2.6095    1.1037   -1.3031 C   0  0
   -3.4881   -6.9275   -0.2273 C   0  0
   -1.8651   -8.7055   -0.1358 C   0  0
    2.2174    0.9714    1.0774 C   0  0
    2.2609    1.7171   -0.1006 C   0  0
   -3.1919   -8.2872   -0.1811 C   0  0
   12.4209   -1.7460   -0.8600 H   0  0
    4.6547   -3.9652   -0.2029 H   0  0
   12.4833   -2.1771    2.2107 H   0  0
   12.2652   -0.5897    1.5004 H   0  0
    1.0432   -2.6245   -1.8713 H   0  0
    2.8146   -4.5734    1.5489 H   0  0
    1.0025   -6.2195    1.5429 H   0  0
   -0.7396   -4.2832   -1.8907 H   0  0
   14.6726   -3.4721    0.2287 H   0  0
    6.2050   -2.1272   -1.0450 H   0  0
    5.5231   -1.0437    0.2140 H   0  0
   10.2296   -0.1700   -0.0390 H   0  0
   10.6081   -3.6500    2.4876 H   0  0
    7.8327   -0.5664   -0.2437 H   0  0
    8.1836   -4.0447    2.2722 H   0  0
    3.1983   -0.7254   -2.2681 H   0  0
    2.4792   -0.9636    1.9789 H   0  0
   -2.7132   -4.9292   -0.2503 H   0  0
    0.1958   -8.1178   -0.1139 H   0  0
   11.0245   -3.8218   -0.7480 H   0  0
   12.3611   -3.8368   -1.9264 H   0  0
   11.4824   -6.1436   -1.5320 H   0  0
   11.8527   -5.9812    0.2014 H   0  0
   13.1655   -5.9995   -0.9702 H   0  0
    2.6002    1.6796   -2.2257 H   0  0
   -4.5252   -6.6012   -0.2583 H   0  0
   -1.6282   -9.7648   -0.1011 H   0  0
    1.9128    1.4421    2.0091 H   0  0
    1.9900    2.7707   -0.0860 H   0  0
   -3.9941   -9.0191   -0.1793 H   0  0
  2  4  1  0
  3  1  1  0
  4  9  1  0
  4 19  1  0
  4 37  1  0
  5 12  1  0
  6  1  2  0
  6 38  1  0
  7  1  1  0
  8  2  2  0
  9 15  1  0
  9 39  1  0
  9 40  1  0
 10  3  2  0
 10 41  1  0
 11  3  1  0
 11 42  1  0
 12 11  2  0
 12 43  1  0
 13  5  2  0
 13 10  1  0
 13 44  1  0
 14  5  1  0
 15 21  2  0
 16  2  1  0
 16 45  1  0
 17 24  1  0
 18  6  1  0
 18 46  1  0
 18 47  1  0
 20 15  1  0
 20 22  2  0
 20 48  1  0
 21 23  1  0
 21 49  1  0
 22 17  1  0
 22 50  1  0
 23 17  2  0
 23 51  1  0
 24 18  1  0
 25  7  2  0
 25 52  1  0
 26  7  1  0
 26 53  1  0
 27 14  2  0
 27 54  1  0
 28 14  1  0
 28 55  1  0
 29 19  1  0
 29 56  1  0
 29 57  1  0
 30 29  1  0
 30 58  1  0
 30 59  1  0
 30 60  1  0
 31 25  1  0
 31 35  2  0
 31 61  1  0
 32 27  1  0
 32 36  2  0
 32 62  1  0
 33 28  2  0
 33 63  1  0
 34 26  2  0
 34 64  1  0
 35 34  1  0
 35 65  1  0
 36 33  1  0
 36 66  1  0
M  END
> <Name>
CHEMBL420973

> <Clean Energy>
30.808001

> <chembl_id>
CHEMBL420973

> <chembl_pref_name>
None

> <efficacy>
1.04

> <Forcefield>
MMFF

> <ForcefieldBase>
MMFF

> <ForcefieldFFML>
<?xml version="1.0" encoding="UTF-8"?>
<!DOCTYPE ffml SYSTEM "Ffml.dtd">
<ffml version="1.0">
<forcefield name="MMFF" derivedFrom="MMFF" base="MMFF">
<atomTypes>
<atomType
name="C100"
element="C"
mass="12.011"
annotation=""/>
<atomType
name="O101"
element="O"
mass="16"
annotation=""/>
<atomType
name="H102"
element="H"
mass="1.008"
annotation=""/>
</atomTypes>
<parameters>
</parameters>
</forcefield>
</ffml>

> <Initial Potential Energy>
364.70603

> <Initial RMS Gradient>
69.47391

> <Minimization Criteria>
CONJUG> Minimization exiting with gradient tolerance ( 0.0100000) satisfied.

> <CHARMm Energy>
104.38004

> <Potential Energy>
104.38004

> <RMS Gradient>
0.00918

> <Bond Energy>
8.82803

> <Angle Energy>
11.72132

> <STRBend>
-0.22496

> <Dihedral Energy>
16.05143

> <OOPLane>
0.03217

> <Van der Waals Energy>
78.88178

> <Electrostatic Energy>
-10.90973

> <Hydrogen Bond Energy>
0

> <Solvation Free Energy>
0

> <HasGasteigerCharges>
true

> <REMARK99>
REMARK  99  MacroMolecule created from Mol2 file
REMARK  99  CHEMBL420973
REMARK  99  PROTEIN
REMARK  99  GASTEIGER
REMARK  99
REMARK  99

$$$$
CHEMBL4096447
  SciTegic05292516403D

 64 68  0  0  0  0            999 V2000
    3.4467   -2.0550   -1.0526 C   0  0
    3.3986   -3.2212   -0.2665 C   0  0
    4.5779   -3.6891    0.3538 C   0  0
    4.6350   -1.3388   -1.2291 C   0  0
    5.7950   -1.7920   -0.5893 C   0  0
    5.7600   -2.9487    0.1797 C   0  0
    7.0554   -3.0831    0.6438 N   0  0
    7.7701   -1.9718    0.2300 C   0  0
    7.0396   -1.2330   -0.5799 N   0  0
    9.1813   -1.6674    0.6339 C   0  0
    9.5036   -0.1745    0.5325 C   0  0
   10.9303    0.1154    0.9720 C   0  0
    7.5421   -4.1690    1.4918 C   0  0
    8.8380   -4.7804    1.0132 C   0  0
    9.0311   -5.1330   -0.3298 C   0  0
   10.2713   -5.5995   -0.7663 C   0  0
   11.3392   -5.7446    0.1307 C   0  0
   11.1230   -5.4629    1.4858 C   0  0
    9.8851   -4.9877    1.9234 C   0  0
   12.6507   -6.1958   -0.3465 C   0  0
   12.8412   -7.5840   -0.5049 C   0  0
   14.0443   -8.1007   -0.9798 C   0  0
   15.0847   -7.2402   -1.3027 C   0  0
   14.9260   -5.8634   -1.1484 C   0  0
   13.7152   -5.3237   -0.6751 C   0  0
   13.5863   -3.8381   -0.5480 C   0  0
   14.6735   -3.1836   -1.0064 O   0  0
   12.6496   -3.1995   -0.1083 O   0  0
    2.1156   -3.9203   -0.0799 C   0  0
    1.3488   -4.3276   -1.1838 C   0  0
    0.0939   -4.9246   -1.0163 C   0  0
   -0.4181   -5.1254    0.2644 C   0  0
    0.3498   -4.7597    1.3708 C   0  0
    1.6005   -4.1594    1.2022 C   0  0
   -1.6404   -5.6624    0.5624 O   0  0
   -2.5362   -5.8283   -0.5289 C   0  0
    2.5371   -1.6744   -1.5199 H   0  0
    4.5666   -4.5922    0.9551 H   0  0
    4.6739   -0.4354   -1.8261 H   0  0
    9.3500   -1.9882    1.6680 H   0  0
    9.8662   -2.2264   -0.0130 H   0  0
    9.3716    0.1723   -0.4996 H   0  0
    8.8096    0.4033    1.1549 H   0  0
   11.1374    1.1876    0.9018 H   0  0
   11.6501   -0.4118    0.3379 H   0  0
   11.0933   -0.1954    2.0089 H   0  0
    7.6459   -3.7397    2.4955 H   0  0
    6.7808   -4.9540    1.5352 H   0  0
    8.2371   -4.9989   -1.0618 H   0  0
   10.4137   -5.8216   -1.8223 H   0  0
   11.9308   -5.5818    2.2045 H   0  0
    9.7595   -4.7445    2.9762 H   0  0
   12.0349   -8.2742   -0.2590 H   0  0
   14.1611   -9.1734   -1.1005 H   0  0
   16.0220   -7.6352   -1.6803 H   0  0
   15.7602   -5.2157   -1.4099 H   0  0
   14.4228   -2.2417   -0.8940 H   0  0
    1.7332   -4.1732   -2.1912 H   0  0
   -0.4552   -5.2162   -1.9053 H   0  0
   -0.0352   -4.9220    2.3741 H   0  0
    2.1616   -3.8503    2.0818 H   0  0
   -3.4977   -6.1580   -0.1237 H   0  0
   -2.1808   -6.6055   -1.2132 H   0  0
   -2.7059   -4.8832   -1.0561 H   0  0
  1  2  2  0
  1 37  1  0
  2  3  1  0
  2 29  1  0
  3  6  2  0
  3 38  1  0
  4  1  1  0
  4 39  1  0
  5  4  2  0
  5  6  1  0
  6  7  1  0
  7  8  1  0
  7 13  1  0
  8  9  2  0
  8 10  1  0
  9  5  1  0
 10 11  1  0
 10 40  1  0
 10 41  1  0
 11 12  1  0
 11 42  1  0
 11 43  1  0
 12 44  1  0
 12 45  1  0
 12 46  1  0
 13 14  1  0
 13 47  1  0
 13 48  1  0
 14 15  2  0
 15 16  1  0
 15 49  1  0
 16 17  2  0
 16 50  1  0
 17 18  1  0
 17 20  1  0
 18 19  2  0
 18 51  1  0
 19 14  1  0
 19 52  1  0
 20 21  2  0
 21 22  1  0
 21 53  1  0
 22 23  2  0
 22 54  1  0
 23 24  1  0
 23 55  1  0
 24 25  2  0
 24 56  1  0
 25 20  1  0
 25 26  1  0
 26 27  1  0
 26 28  2  0
 27 57  1  0
 29 30  2  0
 30 31  1  0
 30 58  1  0
 31 32  2  0
 31 59  1  0
 32 33  1  0
 32 35  1  0
 33 34  2  0
 33 60  1  0
 34 29  1  0
 34 61  1  0
 35 36  1  0
 36 62  1  0
 36 63  1  0
 36 64  1  0
M  END
> <Name>
CHEMBL4096447

> <Clean Energy>
52.993099

> <chembl_id>
CHEMBL4096447

> <chembl_pref_name>
None

> <efficacy>
1.045584046

> <Forcefield>
MMFF

> <ForcefieldBase>
MMFF

> <ForcefieldFFML>
<?xml version="1.0" encoding="UTF-8"?>
<!DOCTYPE ffml SYSTEM "Ffml.dtd">
<ffml version="1.0">
<forcefield name="MMFF" derivedFrom="MMFF" base="MMFF">
<atomTypes>
<atomType
name="C100"
element="C"
mass="12.011"
annotation=""/>
<atomType
name="N101"
element="N"
mass="14.007"
annotation=""/>
<atomType
name="O102"
element="O"
mass="16"
annotation=""/>
<atomType
name="H103"
element="H"
mass="1.008"
annotation=""/>
</atomTypes>
<parameters>
</parameters>
</forcefield>
</ffml>

> <Initial Potential Energy>
313.94735

> <Initial RMS Gradient>
38.48934

> <Minimization Criteria>
STEEPD> Minimization exiting with gradient tolerance ( 3.0000000) satisfied.

> <CHARMm Energy>
93.22751

> <Potential Energy>
93.22751

> <RMS Gradient>
0.06858

> <Bond Energy>
9.3901

> <Angle Energy>
16.8385

> <STRBend>
-0.56349

> <Dihedral Energy>
11.10818

> <OOPLane>
0.05581

> <Van der Waals Energy>
76.80362

> <Electrostatic Energy>
-20.40521

> <Hydrogen Bond Energy>
0

> <Solvation Free Energy>
0

> <HasGasteigerCharges>
true

> <REMARK99>
REMARK  99  MacroMolecule created from Mol2 file
REMARK  99  CHEMBL4096447
REMARK  99  PROTEIN
REMARK  99  GASTEIGER
REMARK  99
REMARK  99

$$$$
CHEMBL5084336
  SciTegic05292516403D

 61 65  0  0  0  0            999 V2000
   25.0407  -21.3445    0.6462 N   0  0
   12.3475  -20.0317    1.4350 O   0  0
   12.3662  -20.3628    0.0255 S   0  0
   11.9034  -19.4278   -0.9757 O   0  0
   16.1660  -15.3811   -0.6745 F   0  0
   15.9617  -16.3153    0.2953 C   0  0
   16.9008  -16.0735    1.2553 F   0  0
   14.9541  -18.5944   -0.0670 C   0  0
   14.9537  -19.8859   -0.5947 C   0  0
   16.0852  -20.3467   -1.2621 C   0  0
   17.2001  -19.5235   -1.4150 C   0  0
   17.2223  -18.2201   -0.8829 C   0  0
   16.0617  -17.7333   -0.2339 C   0  0
   14.7598  -16.0077    0.8586 F   0  0
   18.4814  -17.3905   -1.0645 C   0  0
   19.6589  -18.1102   -0.6081 N   0  0
   20.5982  -18.5956   -1.4928 C   0  0
   21.7527  -19.3522   -0.9277 C   0  0
   20.5049  -18.4633   -2.7090 O   0  0
   22.3519  -20.3125   -1.7490 C   0  0
   23.4620  -21.0468   -1.3235 C   0  0
   22.2684  -19.1068    0.3540 C   0  0
   23.3899  -19.8410    0.8039 C   0  0
   23.9684  -20.7956   -0.0393 C   0  0
   25.1627  -20.7494    1.8808 C   0  0
   24.1443  -19.8334    2.0106 C   0  0
   25.9504  -22.3752    0.1446 C   0  0
   25.3479  -23.7530    0.2803 C   0  0
   25.2385  -24.3685    1.5387 C   0  0
   24.6580  -25.6331    1.6674 C   0  0
   24.1749  -26.2950    0.5410 C   0  0
   24.2788  -25.6886   -0.7038 C   0  0
   24.8624  -24.4339   -0.8450 C   0  0
   23.8168  -26.3233   -1.7888 F   0  0
   13.9312  -20.8588   -0.3462 N   0  0
   11.3471  -21.8555   -0.2050 C   0  0
   10.2703  -22.0660    0.8249 C   0  0
   11.5240  -22.9002    0.8659 C   0  0
   14.0907  -18.2255    0.4840 H   0  0
   16.1011  -21.3499   -1.6810 H   0  0
   18.0623  -19.9071   -1.9599 H   0  0
   18.5747  -17.1058   -2.1180 H   0  0
   18.4524  -16.4712   -0.4756 H   0  0
   19.7394  -18.3064    0.3790 H   0  0
   21.9379  -20.4974   -2.7400 H   0  0
   23.9159  -21.7742   -1.9864 H   0  0
   21.8401  -18.3452    0.9963 H   0  0
   25.9579  -21.0327    2.5621 H   0  0
   23.9492  -19.2136    2.8757 H   0  0
   26.1843  -22.1313   -0.8979 H   0  0
   26.8880  -22.3110    0.7093 H   0  0
   25.6026  -23.8617    2.4311 H   0  0
   24.5943  -26.1051    2.6452 H   0  0
   23.7274  -27.2803    0.6241 H   0  0
   24.9114  -23.9935   -1.8363 H   0  0
   14.2560  -21.5504    0.3329 H   0  0
   11.1674  -22.1653   -1.2234 H   0  0
   10.1246  -21.3212    1.5999 H   0  0
    9.3513  -22.5424    0.5023 H   0  0
   11.4488  -23.9406    0.5715 H   0  0
   12.2191  -22.7212    1.6789 H   0  0
  1 25  1  0
  1 27  1  0
  3  2  2  0
  3 36  1  0
  4  3  2  0
  6  5  1  0
  6 14  1  0
  7  6  1  0
  8  9  2  0
  8 39  1  0
  9 10  1  0
  9 35  1  0
 10 11  2  0
 10 40  1  0
 11 12  1  0
 11 41  1  0
 12 13  2  0
 12 15  1  0
 13  6  1  0
 13  8  1  0
 15 16  1  0
 15 42  1  0
 15 43  1  0
 16 17  1  0
 16 44  1  0
 17 18  1  0
 17 19  2  0
 18 20  2  0
 20 21  1  0
 20 45  1  0
 21 24  2  0
 21 46  1  0
 22 18  1  0
 22 47  1  0
 23 22  2  0
 23 24  1  0
 24  1  1  0
 25 26  2  0
 25 48  1  0
 26 23  1  0
 26 49  1  0
 27 28  1  0
 27 50  1  0
 27 51  1  0
 28 29  2  0
 29 30  1  0
 29 52  1  0
 30 31  2  0
 30 53  1  0
 31 32  1  0
 31 54  1  0
 32 33  2  0
 32 34  1  0
 33 28  1  0
 33 55  1  0
 35  3  1  0
 35 56  1  0
 36 38  1  0
 36 57  1  0
 37 36  1  0
 37 58  1  0
 37 59  1  0
 38 37  1  0
 38 60  1  0
 38 61  1  0
M  END
> <Name>
CHEMBL5084336

> <Clean Energy>
81.158997

> <chembl_id>
CHEMBL5084336

> <chembl_pref_name>
None

> <efficacy>
1.05642925

> <Forcefield>
MMFF

> <ForcefieldBase>
MMFF

> <ForcefieldFFML>
<?xml version="1.0" encoding="UTF-8"?>
<!DOCTYPE ffml SYSTEM "Ffml.dtd">
<ffml version="1.0">
<forcefield name="MMFF" derivedFrom="MMFF" base="MMFF">
<atomTypes>
<atomType
name="N100"
element="N"
mass="14.007"
annotation=""/>
<atomType
name="O101"
element="O"
mass="16"
annotation=""/>
<atomType
name="S102"
element="S"
mass="32.066"
annotation=""/>
<atomType
name="F103"
element="F"
mass="18.998"
annotation=""/>
<atomType
name="C104"
element="C"
mass="12.011"
annotation=""/>
<atomType
name="H105"
element="H"
mass="1.008"
annotation=""/>
</atomTypes>
<parameters>
</parameters>
</forcefield>
</ffml>

> <Initial Potential Energy>
451.40094

> <Initial RMS Gradient>
205.99539

> <Minimization Criteria>
STEEPD> Minimization exiting with gradient tolerance ( 3.0000000) satisfied.

> <CHARMm Energy>
34.05288

> <Potential Energy>
34.05288

> <RMS Gradient>
0.01176

> <Bond Energy>
7.40088

> <Angle Energy>
10.8952

> <STRBend>
0.27117

> <Dihedral Energy>
18.48249

> <OOPLane>
0.18405

> <Van der Waals Energy>
58.85211

> <Electrostatic Energy>
-62.03302

> <Hydrogen Bond Energy>
0

> <Solvation Free Energy>
0

> <HasGasteigerCharges>
true

> <REMARK99>
REMARK  99  MacroMolecule created from Mol2 file
REMARK  99  CHEMBL5084336
REMARK  99  PROTEIN
REMARK  99  GASTEIGER
REMARK  99
REMARK  99

$$$$
CHEMBL5077367
  SciTegic05292516403D

 60 62  0  0  0  0            999 V2000
   47.1736  -13.7093    1.3503 C   0  0
   47.5467  -13.8590   -0.1378 C   0  0
   48.7390  -14.8282   -0.2525 C   0  0
   43.0756  -13.4357   -0.0717 C   0  0
   42.6088  -14.5988    0.5504 C   0  0
   43.4576  -15.7072    0.5935 C   0  0
   44.7573  -15.6608    0.0563 C   0  0
   45.2302  -14.4559   -0.5011 C   0  0
   44.3625  -13.3590   -0.6388 C   0  0
   46.5124  -14.4209   -0.9867 O   0  0
   48.0632  -12.5348   -0.7579 C   0  0
   48.8176  -11.7567    0.0561 O   0  0
   47.9006  -12.2008   -1.9249 O   0  0
   41.2546  -14.6740    1.2205 C   0  0
   40.2107  -13.8994    0.5874 N   0  0
   39.6883  -12.6887    1.0593 C   0  0
   38.6737  -12.3598    0.1739 N   0  0
   38.6715  -13.3670   -0.7301 C   0  0
   39.5467  -14.3048   -0.5420 N   0  0
   40.0761  -12.0996    2.0573 O   0  0
   37.8063  -11.2397    0.2223 C   0  0
   37.9519  -10.2437    1.1988 C   0  0
   37.0787   -9.1483    1.2656 C   0  0
   36.0313   -9.0090    0.3496 C   0  0
   35.8745   -9.9958   -0.6293 C   0  0
   36.7527  -11.0899   -0.6947 C   0  0
   35.0740   -7.8453    0.4341 C   0  0
   35.6188   -6.7355    1.0080 F   0  0
   33.9609   -8.1339    1.1656 F   0  0
   34.6175   -7.4402   -0.7859 F   0  0
   44.7045  -12.1196   -1.4298 C   0  0
   44.9870  -10.9070   -0.5561 C   0  0
   45.5799  -16.9277    0.0692 C   0  0
   45.6997  -17.5578   -1.3110 C   0  0
   46.7702  -14.6390    1.7639 H   0  0
   46.4212  -12.9284    1.4984 H   0  0
   48.0362  -13.4458    1.9708 H   0  0
   49.6271  -14.4473    0.2640 H   0  0
   49.0065  -14.9937   -1.3032 H   0  0
   48.5020  -15.8100    0.1663 H   0  0
   42.4187  -12.5704   -0.1468 H   0  0
   43.1062  -16.6337    1.0470 H   0  0
   49.0867  -12.1254    0.9165 H   0  0
   40.9026  -15.7121    1.2498 H   0  0
   41.3703  -14.3321    2.2555 H   0  0
   37.9605  -13.3647   -1.5624 H   0  0
   38.7479  -10.2809    1.9382 H   0  0
   37.2311   -8.4026    2.0453 H   0  0
   35.0636   -9.9215   -1.3539 H   0  0
   36.5618  -11.8158   -1.4799 H   0  0
   45.5343  -12.3139   -2.1111 H   0  0
   43.8584  -11.8880   -2.0908 H   0  0
   45.2570  -10.0487   -1.1797 H   0  0
   45.8071  -11.0894    0.1425 H   0  0
   44.1072  -10.6284    0.0335 H   0  0
   46.5697  -16.7266    0.4846 H   0  0
   45.1276  -17.6604    0.7493 H   0  0
   46.2749  -18.4871   -1.2520 H   0  0
   46.2076  -16.8945   -2.0182 H   0  0
   44.7130  -17.7954   -1.7231 H   0  0
  1 35  1  0
  1 36  1  0
  1 37  1  0
  2  1  1  0
  2 11  1  0
  3  2  1  0
  3 38  1  0
  3 39  1  0
  3 40  1  0
  4  5  2  0
  4 41  1  0
  5  6  1  0
  5 14  1  0
  6  7  2  0
  6 42  1  0
  7  8  1  0
  7 33  1  0
  8  9  2  0
  8 10  1  0
  9  4  1  0
  9 31  1  0
 10  2  1  0
 11 12  1  0
 11 13  2  0
 12 43  1  0
 14 15  1  0
 14 44  1  0
 14 45  1  0
 15 16  1  0
 16 17  1  0
 16 20  2  0
 17 18  1  0
 17 21  1  0
 18 19  2  0
 18 46  1  0
 19 15  1  0
 21 22  2  0
 22 23  1  0
 22 47  1  0
 23 24  2  0
 23 48  1  0
 24 25  1  0
 24 27  1  0
 25 26  2  0
 25 49  1  0
 26 21  1  0
 26 50  1  0
 27 28  1  0
 27 29  1  0
 27 30  1  0
 31 32  1  0
 31 51  1  0
 31 52  1  0
 32 53  1  0
 32 54  1  0
 32 55  1  0
 33 34  1  0
 33 56  1  0
 33 57  1  0
 34 58  1  0
 34 59  1  0
 34 60  1  0
M  END
> <Name>
CHEMBL5077367

> <Clean Energy>
79.921402

> <chembl_id>
CHEMBL5077367

> <chembl_pref_name>
None

> <efficacy>
0.92

> <Forcefield>
MMFF

> <ForcefieldBase>
MMFF

> <ForcefieldFFML>
<?xml version="1.0" encoding="UTF-8"?>
<!DOCTYPE ffml SYSTEM "Ffml.dtd">
<ffml version="1.0">
<forcefield name="MMFF" derivedFrom="MMFF" base="MMFF">
<atomTypes>
<atomType
name="C100"
element="C"
mass="12.011"
annotation=""/>
<atomType
name="O101"
element="O"
mass="16"
annotation=""/>
<atomType
name="N102"
element="N"
mass="14.007"
annotation=""/>
<atomType
name="F103"
element="F"
mass="18.998"
annotation=""/>
<atomType
name="H104"
element="H"
mass="1.008"
annotation=""/>
</atomTypes>
<parameters>
</parameters>
</forcefield>
</ffml>

> <Initial Potential Energy>
275.30949

> <Initial RMS Gradient>
30.43851

> <Minimization Criteria>
STEEPD> Minimization exiting with gradient tolerance ( 3.0000000) satisfied.

> <CHARMm Energy>
123.665

> <Potential Energy>
123.665

> <RMS Gradient>
0.03691

> <Bond Energy>
7.99296

> <Angle Energy>
31.36323

> <STRBend>
0.33653

> <Dihedral Energy>
4.99344

> <OOPLane>
0.24927

> <Van der Waals Energy>
57.02752

> <Electrostatic Energy>
21.70205

> <Hydrogen Bond Energy>
0

> <Solvation Free Energy>
0

> <HasGasteigerCharges>
true

> <REMARK99>
REMARK  99  MacroMolecule created from Mol2 file
REMARK  99  CHEMBL5077367
REMARK  99  PROTEIN
REMARK  99  GASTEIGER
REMARK  99
REMARK  99

$$$$
CHEMBL5076679
  SciTegic05292516403D

 64 67  0  0  0  0            999 V2000
   39.1056  -14.5981    2.0189 O   0  0
   39.8153  -14.3570    0.7749 S   0  0
   41.2652  -14.3432    0.7447 O   0  0
   29.3029   -8.1988   -2.1044 F   0  0
   30.1209   -8.4876   -1.0529 C   0  0
   31.3901   -8.3021   -1.5136 F   0  0
   26.2860  -13.2684    1.2853 O   0  0
   25.9326  -12.7753   -0.0321 S   0  0
   24.8723  -13.4185   -0.7914 O   0  0
   28.8067  -10.6368   -0.9679 C   0  0
   28.5122  -11.9164   -0.4740 C   0  0
   29.3233  -12.4369    0.5379 C   0  0
   30.4271  -11.7176    1.0084 C   0  0
   30.7575  -10.4493    0.4891 C   0  0
   29.9112   -9.8862   -0.4952 C   0  0
   32.0058   -9.7561    1.0167 C   0  0
   33.2163  -10.4892    0.7032 N   0  0
   34.4634   -9.9242    0.8758 C   0  0
   35.6328  -10.8153    0.6528 C   0  0
   34.6681   -8.7566    1.1951 O   0  0
   35.6587  -12.1311    1.1180 C   0  0
   36.8229  -12.9090    1.0207 C   0  0
   36.7731  -10.2607    0.0579 C   0  0
   37.9509  -11.0279   -0.0544 C   0  0
   37.9777  -12.3330    0.4495 C   0  0
   39.2874  -12.7787    0.2955 N   0  0
   40.0440  -11.8505   -0.4006 C   0  0
   39.2320  -10.7496   -0.5956 C   0  0
   27.3872  -12.7331   -1.0657 C   0  0
   25.4635  -11.0310    0.2000 C   0  0
   29.8904   -7.5164   -0.1284 F   0  0
   39.2063  -15.5206   -0.4507 C   0  0
   39.5808  -16.9442   -0.0476 C   0  0
   39.7221  -15.2049   -1.8482 C   0  0
   24.6272  -10.4395   -0.9027 C   0  0
   23.9866  -10.8154    0.4072 C   0  0
   41.4670  -12.0088   -0.7977 C   0  0
   28.1728  -10.2093   -1.7477 H   0  0
   29.0906  -13.4105    0.9710 H   0  0
   31.0454  -12.1619    1.7897 H   0  0
   32.1054   -8.7328    0.6458 H   0  0
   31.9372   -9.6813    2.1090 H   0  0
   33.1394  -11.4364    0.3595 H   0  0
   34.7903  -12.5523    1.6213 H   0  0
   36.8419  -13.9082    1.4490 H   0  0
   36.7731   -9.2263   -0.2807 H   0  0
   39.5262   -9.8239   -1.0759 H   0  0
   27.0820  -12.3385   -2.0407 H   0  0
   27.7101  -13.7688   -1.2172 H   0  0
   26.1503  -10.4056    0.7512 H   0  0
   38.1143  -15.4301   -0.4405 H   0  0
   39.1752  -17.6704   -0.7597 H   0  0
   39.1835  -17.1889    0.9430 H   0  0
   40.6676  -17.0748   -0.0094 H   0  0
   39.3354  -15.9264   -2.5758 H   0  0
   40.8157  -15.2389   -1.8891 H   0  0
   39.4045  -14.2100   -2.1737 H   0  0
   24.7488   -9.3838   -1.1192 H   0  0
   24.3741  -11.0369   -1.7716 H   0  0
   23.3140  -11.6676    0.4185 H   0  0
   23.6801  -10.0149    1.0717 H   0  0
   41.7874  -11.1644   -1.4183 H   0  0
   41.6210  -12.9145   -1.3898 H   0  0
   42.1186  -12.0273    0.0810 H   0  0
  2  1  2  0
  2 32  1  0
  3  2  2  0
  5  4  1  0
  5 31  1  0
  6  5  1  0
  8  7  2  0
  8 30  1  0
  9  8  2  0
 10 11  2  0
 10 38  1  0
 11 12  1  0
 11 29  1  0
 12 13  2  0
 12 39  1  0
 13 14  1  0
 13 40  1  0
 14 15  2  0
 14 16  1  0
 15  5  1  0
 15 10  1  0
 16 17  1  0
 16 41  1  0
 16 42  1  0
 17 18  1  0
 17 43  1  0
 18 19  1  0
 18 20  2  0
 19 21  2  0
 21 22  1  0
 21 44  1  0
 22 25  2  0
 22 45  1  0
 23 19  1  0
 23 46  1  0
 24 23  2  0
 24 25  1  0
 25 26  1  0
 26  2  1  0
 26 27  1  0
 27 28  2  0
 27 37  1  0
 28 24  1  0
 28 47  1  0
 29  8  1  0
 29 48  1  0
 29 49  1  0
 30 36  1  0
 30 50  1  0
 32 33  1  0
 32 34  1  0
 32 51  1  0
 33 52  1  0
 33 53  1  0
 33 54  1  0
 34 55  1  0
 34 56  1  0
 34 57  1  0
 35 30  1  0
 35 58  1  0
 35 59  1  0
 36 35  1  0
 36 60  1  0
 36 61  1  0
 37 62  1  0
 37 63  1  0
 37 64  1  0
M  END
> <Name>
CHEMBL5076679

> <Clean Energy>
84.164597

> <chembl_id>
CHEMBL5076679

> <chembl_pref_name>
None

> <efficacy>
1.272554606

> <Forcefield>
MMFF

> <ForcefieldBase>
MMFF

> <ForcefieldFFML>
<?xml version="1.0" encoding="UTF-8"?>
<!DOCTYPE ffml SYSTEM "Ffml.dtd">
<ffml version="1.0">
<forcefield name="MMFF" derivedFrom="MMFF" base="MMFF">
<atomTypes>
<atomType
name="O100"
element="O"
mass="16"
annotation=""/>
<atomType
name="S101"
element="S"
mass="32.066"
annotation=""/>
<atomType
name="F102"
element="F"
mass="18.998"
annotation=""/>
<atomType
name="C103"
element="C"
mass="12.011"
annotation=""/>
<atomType
name="N104"
element="N"
mass="14.007"
annotation=""/>
<atomType
name="H105"
element="H"
mass="1.008"
annotation=""/>
</atomTypes>
<parameters>
</parameters>
</forcefield>
</ffml>

> <Initial Potential Energy>
274.17468

> <Initial RMS Gradient>
29.66594

> <Minimization Criteria>
CONJUG> Minimization exiting with gradient tolerance ( 0.0100000) satisfied.

> <CHARMm Energy>
156.19276

> <Potential Energy>
156.19276

> <RMS Gradient>
0.00945

> <Bond Energy>
7.52508

> <Angle Energy>
14.16899

> <STRBend>
1.72894

> <Dihedral Energy>
10.48109

> <OOPLane>
0.14097

> <Van der Waals Energy>
47.39812

> <Electrostatic Energy>
74.74957

> <Hydrogen Bond Energy>
0

> <Solvation Free Energy>
0

> <HasGasteigerCharges>
true

> <REMARK99>
REMARK  99  MacroMolecule created from Mol2 file
REMARK  99  CHEMBL5076679
REMARK  99  PROTEIN
REMARK  99  GASTEIGER
REMARK  99
REMARK  99

$$$$
CHEMBL521796
  SciTegic05292516403D

 48 49  0  0  0  0            999 V2000
   -5.9339   -7.4727   -1.7801 C   0  0
   -6.1044   -8.4058   -0.7573 C   0  0
   -5.0186   -8.8013    0.0324 C   0  0
   -3.7550   -8.2529   -0.2282 C   0  0
   -3.5718   -7.3290   -1.2682 C   0  0
   -4.6724   -6.9307   -2.0340 C   0  0
   -2.1980   -6.7915   -1.5189 C   0  0
   -1.8713   -6.2508   -2.8981 C   0  0
   -1.3367   -6.8036   -0.5414 N   0  0
   -0.1069   -6.2519   -0.9348 O   0  0
    0.7349   -6.0851    0.2073 C   0  0
    0.8493   -4.6185    0.5351 C   0  0
    1.6730   -3.7825   -0.2300 C   0  0
    1.7615   -2.4202    0.0604 C   0  0
    1.0249   -1.8818    1.1142 C   0  0
    0.1940   -2.7023    1.8754 C   0  0
    0.1027   -4.0634    1.5842 C   0  0
   -5.2052   -9.8324    1.1226 C   0  0
   -5.1192  -11.2610    0.5718 C   0  0  2  0  0  0
   -6.4659  -11.9689    0.7506 C   0  0
   -4.1635  -12.0544    1.3233 O   0  0
   -2.8222  -11.8670    0.8644 C   0  0
   -1.9162  -12.7761    1.6708 C   0  0
   -6.3717  -13.0264    1.6029 O   0  0
   -7.5154  -11.6523    0.2102 O   0  0
   -6.7906   -7.1700   -2.3792 H   0  0
   -7.0958   -8.8214   -0.5792 H   0  0
   -2.9019   -8.5467    0.3798 H   0  0
   -4.5770   -6.1897   -2.8222 H   0  0
   -2.5616   -6.6212   -3.6591 H   0  0
   -0.8704   -6.5698   -3.2039 H   0  0
   -1.9087   -5.1581   -2.8732 H   0  0
    0.3726   -6.6608    1.0688 H   0  0
    1.7243   -6.4850   -0.0422 H   0  0
    2.2504   -4.1883   -1.0580 H   0  0
    2.4066   -1.7763   -0.5335 H   0  0
    1.1001   -0.8206    1.3412 H   0  0
   -0.3800   -2.2766    2.6942 H   0  0
   -0.5646   -4.6932    2.1701 H   0  0
   -4.4509   -9.6659    1.9020 H   0  0
   -6.1699   -9.6442    1.6119 H   0  0
   -4.8710  -11.3213   -0.4951 H   0  0
   -2.7536  -12.1236   -0.1982 H   0  0
   -2.5183  -10.8266    1.0069 H   0  0
   -1.9869  -12.5420    2.7382 H   0  0
   -0.8749  -12.6702    1.3540 H   0  0
   -2.2171  -13.8225    1.5537 H   0  0
   -5.4261  -13.0605    1.8930 H   0  0
  1  2  2  0
  1 26  1  0
  2  3  1  0
  2 27  1  0
  3  4  2  0
  3 18  1  0
  4  5  1  0
  4 28  1  0
  5  6  2  0
  5  7  1  0
  6  1  1  0
  6 29  1  0
  7  8  1  0
  7  9  2  0
  8 30  1  0
  8 31  1  0
  8 32  1  0
  9 10  1  0
 10 11  1  0
 11 12  1  0
 11 33  1  0
 11 34  1  0
 12 13  2  0
 13 14  1  0
 13 35  1  0
 14 15  2  0
 14 36  1  0
 15 16  1  0
 15 37  1  0
 16 17  2  0
 16 38  1  0
 17 12  1  0
 17 39  1  0
 18 19  1  0
 18 40  1  0
 18 41  1  0
 19 20  1  0
 19 21  1  0
 19 42  1  0
 20 24  1  0
 20 25  2  0
 21 22  1  0
 22 23  1  0
 22 43  1  0
 22 44  1  0
 23 45  1  0
 23 46  1  0
 23 47  1  0
 24 48  1  0
M  END
> <Name>
CHEMBL521796

> <Clean Energy>
30.168699

> <chembl_id>
CHEMBL521796

> <chembl_pref_name>
None

> <efficacy>
1.35

> <Forcefield>
MMFF

> <ForcefieldBase>
MMFF

> <ForcefieldFFML>
<?xml version="1.0" encoding="UTF-8"?>
<!DOCTYPE ffml SYSTEM "Ffml.dtd">
<ffml version="1.0">
<forcefield name="MMFF" derivedFrom="MMFF" base="MMFF">
<atomTypes>
<atomType
name="C100"
element="C"
mass="12.011"
annotation=""/>
<atomType
name="N101"
element="N"
mass="14.007"
annotation=""/>
<atomType
name="O102"
element="O"
mass="16"
annotation=""/>
<atomType
name="H103"
element="H"
mass="1.008"
annotation=""/>
</atomTypes>
<parameters>
</parameters>
</forcefield>
</ffml>

> <Initial Potential Energy>
201.52562

> <Initial RMS Gradient>
26.2029

> <Minimization Criteria>
CONJUG> Minimization exiting with gradient tolerance ( 0.0100000) satisfied.

> <CHARMm Energy>
95.32393

> <Potential Energy>
95.32393

> <RMS Gradient>
0.00994

> <Bond Energy>
5.13834

> <Angle Energy>
6.13618

> <STRBend>
1.23038

> <Dihedral Energy>
3.85933

> <OOPLane>
0.0147

> <Van der Waals Energy>
50.03654

> <Electrostatic Energy>
28.90847

> <Hydrogen Bond Energy>
0

> <Solvation Free Energy>
0

> <HasGasteigerCharges>
true

> <REMARK99>
REMARK  99  MacroMolecule created from Mol2 file
REMARK  99  CHEMBL521796
REMARK  99  PROTEIN
REMARK  99  GASTEIGER
REMARK  99
REMARK  99

$$$$
CHEMBL490220
  SciTegic05292516403D

 48 49  0  0  0  0            999 V2000
    1.7129   -1.0779    0.6782 C   0  0
    1.9315   -2.2588   -0.0317 C   0  0
    3.2183   -2.6047   -0.4626 C   0  0
    4.2836   -1.7397   -0.1767 C   0  0
    4.0687   -0.5552    0.5439 C   0  0
    2.7773   -0.2249    0.9651 C   0  0
    5.2229    0.3507    0.8129 C   0  0
    5.1803    1.2261    2.0508 C   0  0
    6.2122    0.3628   -0.0328 N   0  0
    7.1820    1.3038    0.3397 O   0  0
    8.1588    1.4003   -0.6949 C   0  0
    9.0273    2.5956   -0.4004 C   0  0
   10.2924    2.4357    0.1818 C   0  0
   11.0783    3.5532    0.4737 C   0  0
   10.6002    4.8323    0.1920 C   0  0
    9.3379    5.0029   -0.3729 C   0  0
    8.5530    3.8889   -0.6677 C   0  0
    3.4521   -3.8958   -1.2142 C   0  0
    4.1762   -4.9736   -0.3906 C   0  0  1  0  0  0
    3.1816   -5.6660    0.5617 C   0  0
    4.7537   -5.8837   -1.3378 O   0  0
    5.7562   -6.7216   -0.7645 C   0  0
    6.2675   -7.6565   -1.8429 C   0  0
    2.8324   -4.9241    1.6412 O   0  0
    2.7442   -6.7987    0.4113 O   0  0
   11.5718    6.2074    0.5490 Cl  0  0
    0.7053   -0.8177    0.9964 H   0  0
    1.0828   -2.9056   -0.2505 H   0  0
    5.2881   -1.9791   -0.5249 H   0  0
    2.5756    0.7056    1.4888 H   0  0
    4.9364    2.2515    1.7590 H   0  0
    6.1526    1.2155    2.5529 H   0  0
    4.4459    0.8715    2.7779 H   0  0
    8.7513    0.4786   -0.7233 H   0  0
    7.6736    1.5266   -1.6709 H   0  0
   10.6689    1.4417    0.4157 H   0  0
   12.0617    3.4262    0.9198 H   0  0
    8.9647    6.0014   -0.5871 H   0  0
    7.5644    4.0328   -1.0997 H   0  0
    2.4994   -4.2902   -1.5923 H   0  0
    4.0357   -3.6592   -2.1146 H   0  0
    4.9863   -4.5382    0.2076 H   0  0
    6.5799   -6.1042   -0.3899 H   0  0
    5.3421   -7.3054    0.0635 H   0  0
    7.0460   -8.3165   -1.4502 H   0  0
    6.6773   -7.0877   -2.6842 H   0  0
    5.4516   -8.2695   -2.2398 H   0  0
    3.2308   -4.0319    1.6697 H   0  0
  1  2  2  0
  1 27  1  0
  2  3  1  0
  2 28  1  0
  3  4  2  0
  3 18  1  0
  4  5  1  0
  4 29  1  0
  5  6  2  0
  5  7  1  0
  6  1  1  0
  6 30  1  0
  7  8  1  0
  7  9  2  0
  8 31  1  0
  8 32  1  0
  8 33  1  0
  9 10  1  0
 10 11  1  0
 11 12  1  0
 11 34  1  0
 11 35  1  0
 12 13  2  0
 13 14  1  0
 13 36  1  0
 14 15  2  0
 14 37  1  0
 15 16  1  0
 15 26  1  0
 16 17  2  0
 16 38  1  0
 17 12  1  0
 17 39  1  0
 18 19  1  0
 18 40  1  0
 18 41  1  0
 19 20  1  0
 19 21  1  0
 19 42  1  0
 20 24  1  0
 20 25  2  0
 21 22  1  0
 22 23  1  0
 22 43  1  0
 22 44  1  0
 23 45  1  0
 23 46  1  0
 23 47  1  0
 24 48  1  0
M  END
> <Name>
CHEMBL490220

> <Clean Energy>
30.568199

> <chembl_id>
CHEMBL490220

> <chembl_pref_name>
None

> <efficacy>
1.63

> <Forcefield>
MMFF

> <ForcefieldBase>
MMFF

> <ForcefieldFFML>
<?xml version="1.0" encoding="UTF-8"?>
<!DOCTYPE ffml SYSTEM "Ffml.dtd">
<ffml version="1.0">
<forcefield name="MMFF" derivedFrom="MMFF" base="MMFF">
<atomTypes>
<atomType
name="C100"
element="C"
mass="12.011"
annotation=""/>
<atomType
name="N101"
element="N"
mass="14.007"
annotation=""/>
<atomType
name="O102"
element="O"
mass="16"
annotation=""/>
<atomType
name="Cl103"
element="Cl"
mass="35.453"
annotation=""/>
<atomType
name="H104"
element="H"
mass="1.008"
annotation=""/>
</atomTypes>
<parameters>
</parameters>
</forcefield>
</ffml>

> <Initial Potential Energy>
197.27668

> <Initial RMS Gradient>
26.65713

> <Minimization Criteria>
CONJUG> Minimization exiting with gradient tolerance ( 0.0100000) satisfied.

> <CHARMm Energy>
102.60788

> <Potential Energy>
102.60788

> <RMS Gradient>
0.00755

> <Bond Energy>
4.92201

> <Angle Energy>
6.72535

> <STRBend>
1.12532

> <Dihedral Energy>
1.49933

> <OOPLane>
0.041

> <Van der Waals Energy>
46.80895

> <Electrostatic Energy>
41.48592

> <Hydrogen Bond Energy>
0

> <Solvation Free Energy>
0

> <HasGasteigerCharges>
true

> <REMARK99>
REMARK  99  MacroMolecule created from Mol2 file
REMARK  99  CHEMBL490220
REMARK  99  PROTEIN
REMARK  99  GASTEIGER
REMARK  99
REMARK  99

$$$$
CHEMBL221649
  SciTegic05292516403D

 58 61  0  0  0  0            999 V2000
    7.8292  -24.5685    1.5359 C   0  0
    7.1244  -23.2400    1.6869 C   0  0
    7.8326  -22.3633    0.6478 C   0  0  1  0  0  0
    8.4363  -23.2663   -0.3282 O   0  0
    8.0866  -24.6118    0.0489 C   0  0
    3.2329  -21.8039   -0.0534 C   0  0
    3.1085  -22.6712   -1.1300 C   0  0
    4.1710  -23.0501   -1.8776 N   0  0
    5.3872  -22.5690   -1.5379 C   0  0
    5.6081  -21.7192   -0.4639 C   0  0
    4.4962  -21.3214    0.2783 C   0  0
    1.9328  -23.2443   -1.5358 O   0  0
    0.7352  -22.8177   -0.8750 C   0  0
   -0.4699  -23.5052   -1.5227 C   0  0
   -1.7906  -22.9264   -1.1243 C   0  0
   -2.2833  -21.6572   -1.3483 C   0  0
   -3.5561  -21.6055   -0.8618 O   0  0
   -3.8100  -22.8708   -0.3903 C   0  0
   -2.7705  -23.6850   -0.5015 N   0  0
   -5.1653  -23.1102    0.1240 C   0  0
   -6.1162  -22.0775    0.2039 C   0  0
   -7.4192  -22.3121    0.6736 C   0  0
   -7.8015  -23.5904    1.0749 C   0  0
   -6.8658  -24.6252    1.0046 C   0  0
   -5.5621  -24.3897    0.5357 C   0  0
   -1.7652  -20.4310   -1.9804 C   0  0
    6.9922  -21.2848   -0.0652 C   0  0
    8.9911  -21.6172    1.3312 C   0  0
   10.1953  -21.9120    0.7862 O   0  0
    8.8476  -20.8292    2.2546 O   0  0
   -9.0329  -23.9561    1.5469 O   0  0
  -10.0360  -22.9475    1.6005 C   0  0
    8.7783  -24.5501    2.0841 H   0  0
    7.2400  -25.4175    1.8921 H   0  0
    6.0657  -23.3909    1.4581 H   0  0
    7.1829  -22.8553    2.7099 H   0  0
    7.1900  -24.9026   -0.5085 H   0  0
    8.9030  -25.2879   -0.2187 H   0  0
    2.3900  -21.4984    0.5526 H   0  0
    6.2064  -22.9134   -2.1657 H   0  0
    4.6041  -20.6565    1.1325 H   0  0
    0.7715  -23.0875    0.1878 H   0  0
    0.6390  -21.7298   -0.9709 H   0  0
   -0.3776  -23.4482   -2.6150 H   0  0
   -0.4436  -24.5755   -1.2836 H   0  0
   -5.8467  -21.0691   -0.1063 H   0  0
   -8.1073  -21.4737    0.7092 H   0  0
   -7.1555  -25.6278    1.3141 H   0  0
   -4.8597  -25.2201    0.4871 H   0  0
   -2.5722  -19.8624   -2.4529 H   0  0
   -1.0272  -20.6701   -2.7521 H   0  0
   -1.2866  -19.7916   -1.2326 H   0  0
    7.5154  -20.9472   -0.9705 H   0  0
    6.8992  -20.3924    0.5683 H   0  0
   10.0635  -22.5572    0.0527 H   0  0
  -10.9530  -23.4074    1.9808 H   0  0
  -10.2491  -22.5509    0.6024 H   0  0
   -9.7513  -22.1473    2.2913 H   0  0
  1  2  1  0
  1 33  1  0
  1 34  1  0
  2  3  1  0
  2 35  1  0
  2 36  1  0
  3  4  1  0
  3 28  1  0
  4  5  1  0
  5  1  1  0
  5 37  1  0
  5 38  1  0
  6  7  2  0
  6 39  1  0
  7  8  1  0
  7 12  1  0
  8  9  2  0
  9 10  1  0
  9 40  1  0
 10 11  2  0
 10 27  1  0
 11  6  1  0
 11 41  1  0
 12 13  1  0
 13 14  1  0
 13 42  1  0
 13 43  1  0
 14 15  1  0
 14 44  1  0
 14 45  1  0
 15 16  2  0
 16 17  1  0
 16 26  1  0
 17 18  1  0
 18 19  2  0
 18 20  1  0
 19 15  1  0
 20 21  2  0
 21 22  1  0
 21 46  1  0
 22 23  2  0
 22 47  1  0
 23 24  1  0
 23 31  1  0
 24 25  2  0
 24 48  1  0
 25 20  1  0
 25 49  1  0
 26 50  1  0
 26 51  1  0
 26 52  1  0
 27  3  1  0
 27 53  1  0
 27 54  1  0
 28 29  1  0
 28 30  2  0
 29 55  1  0
 31 32  1  0
 32 56  1  0
 32 57  1  0
 32 58  1  0
M  END
> <Name>
CHEMBL221649

> <Clean Energy>
77.4673

> <chembl_id>
CHEMBL221649

> <chembl_pref_name>
None

> <efficacy>
1.25

> <Forcefield>
MMFF

> <ForcefieldBase>
MMFF

> <ForcefieldFFML>
<?xml version="1.0" encoding="UTF-8"?>
<!DOCTYPE ffml SYSTEM "Ffml.dtd">
<ffml version="1.0">
<forcefield name="MMFF" derivedFrom="MMFF" base="MMFF">
<atomTypes>
<atomType
name="C100"
element="C"
mass="12.011"
annotation=""/>
<atomType
name="O101"
element="O"
mass="16"
annotation=""/>
<atomType
name="N102"
element="N"
mass="14.007"
annotation=""/>
<atomType
name="H103"
element="H"
mass="1.008"
annotation=""/>
</atomTypes>
<parameters>
</parameters>
</forcefield>
</ffml>

> <Initial Potential Energy>
206.04217

> <Initial RMS Gradient>
30.98787

> <Minimization Criteria>
CONJUG> Minimization exiting with gradient tolerance ( 0.0100000) satisfied.

> <CHARMm Energy>
73.26221

> <Potential Energy>
73.26221

> <RMS Gradient>
0.00965

> <Bond Energy>
5.75434

> <Angle Energy>
20.91007

> <STRBend>
0.81646

> <Dihedral Energy>
1.6411

> <OOPLane>
0.05954

> <Van der Waals Energy>
53.70229

> <Electrostatic Energy>
-9.62159

> <Hydrogen Bond Energy>
0

> <Solvation Free Energy>
0

> <HasGasteigerCharges>
true

> <REMARK99>
REMARK  99  MacroMolecule created from Mol2 file
REMARK  99  CHEMBL221649
REMARK  99  PROTEIN
REMARK  99  GASTEIGER
REMARK  99
REMARK  99

$$$$
CHEMBL24458
  SciTegic05292516403D

 47 49  0  0  0  0            999 V2000
   11.9676   -7.0569   -0.6894 N   0  0
   12.7429   -5.9991   -0.3457 C   0  0
   10.6219   -7.0151   -0.4515 C   0  0
    5.1367   -5.4297    0.1741 C   0  0
   11.7148   -4.6978    0.2171 S   0  0
   -3.0800   -7.9319   -0.0602 C   0  0
   10.2237   -5.7727    0.3307 C   0  0  1  0  0  0
    3.9595   -4.6086   -0.2844 C   0  0
    2.7062   -5.0051    0.1272 N   0  0
   -1.9008   -6.9912   -0.0965 C   0  0
    5.0260   -6.6416    0.8724 C   0  0
    6.4299   -4.9591   -0.1528 C   0  0
   13.9593   -5.9460   -0.4203 O   0  0
    8.9529   -5.0878   -0.1986 C   0  0
    9.8727   -7.9212   -0.7891 O   0  0
    7.6002   -5.6521    0.2263 C   0  0
    4.1288   -3.6219   -0.9952 O   0  0
   -3.7450   -7.9885   -1.2492 F   0  0
   -2.7148   -9.2139    0.2227 F   0  0
   -4.0212   -7.6007    0.8700 F   0  0
    6.1825   -7.3116    1.2925 C   0  0
   -1.8223   -5.8902    0.7689 C   0  0
   -0.8564   -7.2116   -1.0077 C   0  0
    1.4957   -4.3139   -0.2545 C   0  0
    7.4523   -6.8274    0.9677 C   0  0
    0.3109   -5.2426   -0.1918 C   0  0
    0.2377   -6.3457   -1.0548 C   0  0
   -0.7261   -5.0248    0.7225 C   0  0
    3.7868   -7.1536    1.1795 O   0  0
    3.6515   -8.5200    0.7819 C   0  0
   12.3997   -7.8621   -1.1180 H   0  0
   10.1278   -6.0464    1.3866 H   0  0
    2.6409   -5.7959    0.7597 H   0  0
    6.5182   -4.0338   -0.7231 H   0  0
    8.9577   -4.0406    0.1336 H   0  0
    8.9734   -5.0849   -1.2967 H   0  0
    6.1070   -8.2240    1.8780 H   0  0
   -2.6208   -5.6969    1.4848 H   0  0
   -0.8970   -8.0605   -1.6894 H   0  0
    1.3753   -3.4680    0.4312 H   0  0
    1.5982   -3.9051   -1.2662 H   0  0
    8.3118   -7.4069    1.2991 H   0  0
    1.0419   -6.5287   -1.7669 H   0  0
   -0.6905   -4.1776    1.4043 H   0  0
    2.5814   -8.7348    0.7008 H   0  0
    4.0673   -9.1868    1.5434 H   0  0
    4.1057   -8.7122   -0.1971 H   0  0
  1 31  1  0
  2  1  1  0
  3  1  1  0
  4 12  1  0
  5  2  1  0
  6 10  1  0
  7  3  1  0
  7  5  1  0
  7 32  1  0
  8  4  1  0
  9  8  1  0
  9 33  1  0
 10 22  2  0
 11  4  2  0
 11 21  1  0
 12 16  2  0
 12 34  1  0
 13  2  2  0
 14  7  1  0
 14 35  1  0
 14 36  1  0
 15  3  2  0
 16 14  1  0
 17  8  2  0
 18  6  1  0
 19  6  1  0
 20  6  1  0
 21 25  2  0
 21 37  1  0
 22 28  1  0
 22 38  1  0
 23 10  1  0
 23 27  2  0
 23 39  1  0
 24  9  1  0
 24 40  1  0
 24 41  1  0
 25 16  1  0
 25 42  1  0
 26 24  1  0
 27 26  1  0
 27 43  1  0
 28 26  2  0
 28 44  1  0
 29 11  1  0
 30 29  1  0
 30 45  1  0
 30 46  1  0
 30 47  1  0
M  END
> <Name>
CHEMBL24458

> <Clean Energy>
57.086201

> <chembl_id>
CHEMBL24458

> <chembl_pref_name>
None

> <efficacy>
1.09

> <Forcefield>
MMFF

> <ForcefieldBase>
MMFF

> <ForcefieldFFML>
<?xml version="1.0" encoding="UTF-8"?>
<!DOCTYPE ffml SYSTEM "Ffml.dtd">
<ffml version="1.0">
<forcefield name="MMFF" derivedFrom="MMFF" base="MMFF">
<atomTypes>
<atomType
name="N100"
element="N"
mass="14.007"
annotation=""/>
<atomType
name="C101"
element="C"
mass="12.011"
annotation=""/>
<atomType
name="S102"
element="S"
mass="32.066"
annotation=""/>
<atomType
name="O103"
element="O"
mass="16"
annotation=""/>
<atomType
name="F104"
element="F"
mass="18.998"
annotation=""/>
<atomType
name="H105"
element="H"
mass="1.008"
annotation=""/>
</atomTypes>
<parameters>
</parameters>
</forcefield>
</ffml>

> <Initial Potential Energy>
88.068

> <Initial RMS Gradient>
32.75788

> <Minimization Criteria>
CONJUG> Minimization exiting with gradient tolerance ( 0.0100000) satisfied.

> <CHARMm Energy>
-3.34105

> <Potential Energy>
-3.34105

> <RMS Gradient>
0.00973

> <Bond Energy>
6.43369

> <Angle Energy>
11.90514

> <STRBend>
0.82364

> <Dihedral Energy>
9.48128

> <OOPLane>
0.09417

> <Van der Waals Energy>
48.06577

> <Electrostatic Energy>
-80.14474

> <Hydrogen Bond Energy>
0

> <Solvation Free Energy>
0

> <HasGasteigerCharges>
true

> <REMARK99>
REMARK  99  MacroMolecule created from Mol2 file
REMARK  99  CHEMBL24458
REMARK  99  PROTEIN
REMARK  99  GASTEIGER
REMARK  99
REMARK  99

$$$$
CHEMBL1935501
  SciTegic05292516403D

 75 77  0  0  0  0            999 V2000
    6.5280  -17.5179   -0.9946 C   0  0
   11.7590  -18.0554    1.8810 C   0  0
   10.8876  -17.2682    2.5916 C   0  0
    9.7194  -17.2132    1.8964 O   0  0
    9.9150  -17.9874    0.7605 C   0  0
   11.1421  -18.4982    0.7342 N   0  0
   10.9471  -16.5261    3.8615 C   0  0
   13.1596  -18.4202    2.1863 C   0  0
   14.1473  -17.5289    1.4441 C   0  0
   15.4596  -17.8687    1.8990 O   0  0
   16.4564  -17.6047    1.0059 C   0  0
   17.5128  -18.5069    1.0219 C   0  0
   17.5530  -16.3735   -0.7572 C   0  0
   16.4848  -16.5236    0.1305 C   0  0
    8.8972  -18.1977   -0.2442 C   0  0
    7.7558  -17.4786   -0.1238 C   0  0
   18.6033  -17.3006   -0.7728 C   0  0
   18.5755  -18.3811    0.1180 C   0  0
   19.6627  -19.4087    0.1546 C   0  0
   20.5135  -19.4067   -1.0310 N   0  0
   20.9113  -18.0784   -1.5534 C   0  0  1  0  0  0
   19.6950  -17.1771   -1.8054 C   0  0
   21.2668  -20.5080   -1.3813 C   0  0
   20.7435  -21.8346   -1.0032 C   0  0
   22.3791  -20.3792   -1.8919 O   0  0
   21.5704  -22.7494   -0.4788 C   0  0
   21.0859  -24.0228   -0.0033 C   0  0
   21.8769  -24.9150    0.6047 C   0  0
   21.3992  -26.2315    1.1241 C   0  0
   21.9949  -17.3858   -0.7048 C   0  0
   22.9345  -18.2378   -0.2150 O   0  0
   22.1449  -16.1767   -0.5908 O   0  0
    5.2621  -17.7056   -0.1475 C   0  0
    3.9593  -17.5935   -0.9619 C   0  0
    2.7535  -17.6218   -0.0191 C   0  0
    9.1286  -19.1696   -1.3782 C   0  0
    3.8257  -18.7037   -2.0050 C   0  0
    6.5865  -18.3177   -1.7353 H   0  0
    6.4651  -16.5696   -1.5410 H   0  0
   10.4959  -17.1138    4.6666 H   0  0
   10.4062  -15.5777    3.7849 H   0  0
   11.9814  -16.3011    4.1388 H   0  0
   13.3446  -18.3615    3.2661 H   0  0
   13.3393  -19.4685    1.9171 H   0  0
   14.0371  -17.6912    0.3632 H   0  0
   13.9568  -16.4724    1.6690 H   0  0
   17.4874  -19.3346    1.7280 H   0  0
   17.5579  -15.5304   -1.4457 H   0  0
   15.6903  -15.7851    0.1226 H   0  0
    7.6764  -16.7639    0.6969 H   0  0
   20.3133  -19.2138    1.0163 H   0  0
   19.2170  -20.3957    0.3047 H   0  0
   21.4008  -18.2310   -2.5259 H   0  0
   19.2481  -17.4729   -2.7644 H   0  0
   19.9974  -16.1282   -1.9030 H   0  0
   19.6854  -22.0140   -1.1381 H   0  0
   22.6320  -22.5325   -0.3641 H   0  0
   20.0251  -24.2392   -0.1294 H   0  0
   22.9384  -24.7135    0.7425 H   0  0
   21.6004  -26.3030    2.1973 H   0  0
   21.9291  -27.0455    0.6200 H   0  0
   20.3251  -26.3747    0.9683 H   0  0
   22.8903  -19.1159   -0.6578 H   0  0
    5.3013  -18.6791    0.3588 H   0  0
    5.2455  -16.9442    0.6440 H   0  0
    3.9530  -16.6283   -1.4842 H   0  0
    1.8190  -17.5059   -0.5783 H   0  0
    2.8087  -16.8041    0.7075 H   0  0
    2.7034  -18.5656    0.5346 H   0  0
    8.4936  -18.9818   -2.2470 H   0  0
    8.9581  -20.1950   -1.0347 H   0  0
   10.1617  -19.0983   -1.7371 H   0  0
    2.8598  -18.6403   -2.5179 H   0  0
    3.8985  -19.6939   -1.5426 H   0  0
    4.6029  -18.6261   -2.7710 H   0  0
  1 33  1  0
  1 38  1  0
  1 39  1  0
  2  3  2  0
  2  8  1  0
  3  4  1  0
  3  7  1  0
  4  5  1  0
  5  6  2  0
  5 15  1  0
  6  2  1  0
  7 40  1  0
  7 41  1  0
  7 42  1  0
  8  9  1  0
  8 43  1  0
  8 44  1  0
  9 10  1  0
  9 45  1  0
  9 46  1  0
 10 11  1  0
 11 12  2  0
 12 18  1  0
 12 47  1  0
 13 14  2  0
 13 48  1  0
 14 11  1  0
 14 49  1  0
 15 16  2  0
 15 36  1  0
 16  1  1  0
 16 50  1  0
 17 13  1  0
 17 18  2  0
 17 22  1  0
 18 19  1  0
 19 20  1  0
 19 51  1  0
 19 52  1  0
 20 21  1  0
 20 23  1  0
 21 22  1  0
 21 30  1  0
 21 53  1  0
 22 54  1  0
 22 55  1  0
 23 24  1  0
 23 25  2  0
 24 26  2  0
 24 56  1  0
 26 27  1  0
 26 57  1  0
 27 28  2  0
 27 58  1  0
 28 29  1  0
 28 59  1  0
 29 60  1  0
 29 61  1  0
 29 62  1  0
 30 31  1  0
 30 32  2  0
 31 63  1  0
 33 34  1  0
 33 64  1  0
 33 65  1  0
 34 35  1  0
 34 37  1  0
 34 66  1  0
 35 67  1  0
 35 68  1  0
 35 69  1  0
 36 70  1  0
 36 71  1  0
 36 72  1  0
 37 73  1  0
 37 74  1  0
 37 75  1  0
M  END
> <Name>
CHEMBL1935501

> <Clean Energy>
54.625599

> <chembl_id>
CHEMBL1935501

> <chembl_pref_name>
None

> <efficacy>
1.252631579

> <Forcefield>
MMFF

> <ForcefieldBase>
MMFF

> <ForcefieldFFML>
<?xml version="1.0" encoding="UTF-8"?>
<!DOCTYPE ffml SYSTEM "Ffml.dtd">
<ffml version="1.0">
<forcefield name="MMFF" derivedFrom="MMFF" base="MMFF">
<atomTypes>
<atomType
name="C100"
element="C"
mass="12.011"
annotation=""/>
<atomType
name="O101"
element="O"
mass="16"
annotation=""/>
<atomType
name="N102"
element="N"
mass="14.007"
annotation=""/>
<atomType
name="H103"
element="H"
mass="1.008"
annotation=""/>
</atomTypes>
<parameters>
</parameters>
</forcefield>
</ffml>

> <Initial Potential Energy>
123.05023

> <Initial RMS Gradient>
19.73641

> <Minimization Criteria>
STEEPD> Minimization exiting with gradient tolerance ( 3.0000000) satisfied.

> <CHARMm Energy>
28.19255

> <Potential Energy>
28.19255

> <RMS Gradient>
0.08135

> <Bond Energy>
6.67621

> <Angle Energy>
18.80223

> <STRBend>
-0.84799

> <Dihedral Energy>
-4.88892

> <OOPLane>
1.14501

> <Van der Waals Energy>
60.7946

> <Electrostatic Energy>
-53.48859

> <Hydrogen Bond Energy>
0

> <Solvation Free Energy>
0

> <HasGasteigerCharges>
true

> <REMARK99>
REMARK  99  MacroMolecule created from Mol2 file
REMARK  99  CHEMBL1935501
REMARK  99  PROTEIN
REMARK  99  GASTEIGER
REMARK  99
REMARK  99

$$$$
CHEMBL167430
  SciTegic05292516403D

 55 58  0  0  0  0            999 V2000
   -0.4282   -0.8561   -0.8476 N   0  0
   -2.1886    0.1098    0.1160 C   0  0
   -1.0839    0.3495   -0.7042 C   0  0
   -1.0297   -1.8421   -0.0916 C   0  0
   -2.1566   -1.2692    0.4971 C   0  0
    9.0815    0.6781    1.2219 C   0  0
   -0.7930    1.6249   -1.2196 C   0  0
   -3.0538    1.1807    0.4225 C   0  0
    9.1768   -0.6905    0.5407 C   0  0  2  0  0  0
    8.1314    1.4422    1.1694 O   0  0
    8.1466   -1.6613    1.1267 C   0  0
    0.7691   -1.0564   -1.6423 C   0  0
   -2.7711    2.4484   -0.0926 C   0  0
    6.8008   -1.5598    0.4542 C   0  0
   -1.6605    2.6720   -0.9013 C   0  0
   10.2157    0.9884    1.9091 O   0  0
    4.3194   -1.3040   -0.8344 C   0  0
   -3.9283    3.8899    0.3189 Br  0  0
   -0.6712   -3.1829    0.1298 C   0  0
   10.5171   -1.1761    0.8221 O   0  0
   -2.9762   -2.0752    1.3157 C   0  0
    5.8102   -0.7253    0.9804 C   0  0
    6.5397   -2.2621   -0.7285 C   0  0
    4.5782   -0.5946    0.3383 C   0  0
    5.3080   -2.1286   -1.3703 C   0  0
    3.1528   -1.2530   -1.5480 O   0  0
    2.0180   -0.7817   -0.8198 C   0  0
   11.0450   -1.9828   -0.2335 C   0  0
   -2.6387   -3.4159    1.5291 C   0  0
   -1.4970   -3.9579    0.9479 C   0  0
   12.4062   -2.4930    0.1939 C   0  0
    0.0837    1.8040   -1.8365 H   0  0
   -3.9132    1.0152    1.0629 H   0  0
    9.0682   -0.5279   -0.5384 H   0  0
    8.5015   -2.6962    1.0389 H   0  0
    8.0345   -1.4981    2.2070 H   0  0
    0.7646   -2.0814   -2.0299 H   0  0
    0.7256   -0.4070   -2.5236 H   0  0
   -1.4800    3.6676   -1.3026 H   0  0
   10.8758    0.2599    1.8015 H   0  0
    0.2260   -3.6121   -0.3070 H   0  0
   -3.8580   -1.6551    1.7889 H   0  0
    5.9934   -0.1468    1.8848 H   0  0
    7.2931   -2.9142   -1.1637 H   0  0
    3.8524    0.0842    0.7741 H   0  0
    5.1154   -2.6743   -2.2903 H   0  0
    1.9472   -1.3013    0.1449 H   0  0
    2.1078    0.2972   -0.6437 H   0  0
   10.3750   -2.8254   -0.4332 H   0  0
   11.1420   -1.3771   -1.1408 H   0  0
   -3.2702   -4.0339    2.1626 H   0  0
   -1.2448   -4.9994    1.1328 H   0  0
   12.8528   -3.1154   -0.5865 H   0  0
   12.3253   -3.0824    1.1133 H   0  0
   13.0807   -1.6578    0.4096 H   0  0
  2  3  2  0
  2  5  1  0
  3  1  1  0
  4  1  1  0
  5  4  1  0
  6  9  1  0
  7  3  1  0
  7 32  1  0
  8  2  1  0
  8 33  1  0
  9 11  1  0
  9 20  1  0
  9 34  1  0
 10  6  2  0
 11 14  1  0
 11 35  1  0
 11 36  1  0
 12  1  1  0
 12 37  1  0
 12 38  1  0
 13  8  2  0
 13 15  1  0
 14 22  2  0
 14 23  1  0
 15  7  2  0
 15 39  1  0
 16  6  1  0
 16 40  1  0
 17 26  1  0
 18 13  1  0
 19  4  2  0
 19 41  1  0
 21  5  2  0
 21 29  1  0
 21 42  1  0
 22 24  1  0
 22 43  1  0
 23 25  2  0
 23 44  1  0
 24 17  2  0
 24 45  1  0
 25 17  1  0
 25 46  1  0
 26 27  1  0
 27 12  1  0
 27 47  1  0
 27 48  1  0
 28 20  1  0
 28 49  1  0
 28 50  1  0
 29 30  2  0
 29 51  1  0
 30 19  1  0
 30 52  1  0
 31 28  1  0
 31 53  1  0
 31 54  1  0
 31 55  1  0
M  END
> <Name>
CHEMBL167430

> <Clean Energy>
50.113701

> <chembl_id>
CHEMBL167430

> <chembl_pref_name>
None

> <efficacy>
1.097

> <Forcefield>
MMFF

> <ForcefieldBase>
MMFF

> <ForcefieldFFML>
<?xml version="1.0" encoding="UTF-8"?>
<!DOCTYPE ffml SYSTEM "Ffml.dtd">
<ffml version="1.0">
<forcefield name="MMFF" derivedFrom="MMFF" base="MMFF">
<atomTypes>
<atomType
name="N100"
element="N"
mass="14.007"
annotation=""/>
<atomType
name="C101"
element="C"
mass="12.011"
annotation=""/>
<atomType
name="O102"
element="O"
mass="16"
annotation=""/>
<atomType
name="Br103"
element="Br"
mass="79.904"
annotation=""/>
<atomType
name="H104"
element="H"
mass="1.008"
annotation=""/>
</atomTypes>
<parameters>
</parameters>
</forcefield>
</ffml>

> <Initial Potential Energy>
161.24374

> <Initial RMS Gradient>
30.01464

> <Minimization Criteria>
CONJUG> Minimization exiting with gradient tolerance ( 0.0100000) satisfied.

> <CHARMm Energy>
66.51597

> <Potential Energy>
66.51597

> <RMS Gradient>
0.00809

> <Bond Energy>
6.15266

> <Angle Energy>
10.26857

> <STRBend>
-0.58853

> <Dihedral Energy>
-0.00145

> <OOPLane>
0.0246

> <Van der Waals Energy>
60.38665

> <Electrostatic Energy>
-9.72651

> <Hydrogen Bond Energy>
0

> <Solvation Free Energy>
0

> <HasGasteigerCharges>
true

> <REMARK99>
REMARK  99  MacroMolecule created from Mol2 file
REMARK  99  CHEMBL167430
REMARK  99  PROTEIN
REMARK  99  GASTEIGER
REMARK  99
REMARK  99

$$$$
CHEMBL514007
  SciTegic05292516403D

 61 65  0  0  0  0            999 V2000
   12.4779   -3.5573    0.8072 C   0  0
   13.6403   -3.0578    1.3821 C   0  0
   14.7514   -3.8849    1.5367 C   0  0
   14.7011   -5.2182    1.1212 C   0  0
   13.5327   -5.7410    0.5533 C   0  0
   12.4267   -4.8903    0.3976 C   0  0
   13.4263   -7.1373    0.1485 C   0  0
   14.5910   -7.8621    0.0655 O   0  0
   14.1742   -9.1148   -0.3025 C   0  0
   12.8015   -9.0873   -0.4375 C   0  0
   12.3423   -7.8241   -0.1535 N   0  0
   15.2056  -10.1536   -0.4559 C   0  0
   11.8501  -10.1750   -0.7833 C   0  0
   10.7703   -9.7267   -1.7672 C   0  0
    9.8522  -10.8091   -2.0014 O   0  0
    8.6731  -10.6042   -1.3377 C   0  0
    8.4310  -11.3265   -0.1750 C   0  0
    7.2329  -11.1399    0.5131 C   0  0
    6.2527  -10.2567    0.0269 C   0  0
    6.5037   -9.5586   -1.1650 C   0  0
    7.7111   -9.7336   -1.8476 C   0  0
    4.9515  -10.0748    0.7769 C   0  0
    4.0707  -11.2320    0.3992 C   0  0
    4.2684  -12.4311    0.9692 N   0  0
    3.3962  -13.2677    0.3600 N   0  0
    2.5278  -12.5723   -0.4575 C   0  0
    2.9402  -11.2504   -0.4684 C   0  0
    2.3686  -10.1456   -1.2188 C   0  0
    2.9754   -9.1099   -1.4528 O   0  0
    3.4374  -14.6714    0.5962 C   0  0
    4.2953  -15.1809    1.5840 C   0  0
    4.3803  -16.5557    1.8098 C   0  0
    3.6162  -17.4320    1.0460 C   0  0
    2.7572  -16.9352    0.0671 C   0  0
    2.6568  -15.5590   -0.1562 C   0  0
    1.0861  -10.3276   -1.6356 O   0  0
   11.6053   -2.9209    0.6817 H   0  0
   13.6807   -2.0232    1.7094 H   0  0
   15.6600   -3.4945    1.9860 H   0  0
   15.5824   -5.8427    1.2569 H   0  0
   11.5073   -5.2723   -0.0426 H   0  0
   14.8517  -11.1130   -0.0660 H   0  0
   16.1189   -9.8872    0.0851 H   0  0
   15.4591  -10.2841   -1.5123 H   0  0
   12.3844  -11.0352   -1.2049 H   0  0
   11.3839  -10.5390    0.1401 H   0  0
   10.2633   -8.8160   -1.4200 H   0  0
   11.2284   -9.4802   -2.7326 H   0  0
    9.1636  -12.0368    0.1950 H   0  0
    7.0520  -11.7046    1.4256 H   0  0
    5.7554   -8.8802   -1.5725 H   0  0
    7.8922   -9.1982   -2.7755 H   0  0
    5.1390  -10.0705    1.8577 H   0  0
    4.4931   -9.1101    0.5404 H   0  0
    1.7335  -13.0758   -0.9851 H   0  0
    4.9070  -14.5149    2.1895 H   0  0
    5.0436  -16.9418    2.5798 H   0  0
    3.6841  -18.5041    1.2170 H   0  0
    2.1619  -17.6259   -0.5259 H   0  0
    1.9778  -15.2279   -0.9354 H   0  0
    0.6630  -11.1340   -1.2891 H   0  0
  1  2  2  0
  1 37  1  0
  2  3  1  0
  2 38  1  0
  3  4  2  0
  3 39  1  0
  4  5  1  0
  4 40  1  0
  5  6  2  0
  5  7  1  0
  6  1  1  0
  6 41  1  0
  7  8  1  0
  8  9  1  0
  9 10  2  0
  9 12  1  0
 10 11  1  0
 10 13  1  0
 11  7  2  0
 12 42  1  0
 12 43  1  0
 12 44  1  0
 13 14  1  0
 13 45  1  0
 13 46  1  0
 14 15  1  0
 14 47  1  0
 14 48  1  0
 15 16  1  0
 16 17  2  0
 17 18  1  0
 17 49  1  0
 18 19  2  0
 18 50  1  0
 19 20  1  0
 19 22  1  0
 20 21  2  0
 20 51  1  0
 21 16  1  0
 21 52  1  0
 22 23  1  0
 22 53  1  0
 22 54  1  0
 23 24  2  0
 24 25  1  0
 25 26  1  0
 25 30  1  0
 26 27  2  0
 26 55  1  0
 27 23  1  0
 27 28  1  0
 28 29  2  0
 28 36  1  0
 30 31  2  0
 31 32  1  0
 31 56  1  0
 32 33  2  0
 32 57  1  0
 33 34  1  0
 33 58  1  0
 34 35  2  0
 34 59  1  0
 35 30  1  0
 35 60  1  0
 36 61  1  0
M  END
> <Name>
CHEMBL514007

> <Clean Energy>
40.1147

> <chembl_id>
CHEMBL514007

> <chembl_pref_name>
None

> <efficacy>
0.9

> <Forcefield>
MMFF

> <ForcefieldBase>
MMFF

> <ForcefieldFFML>
<?xml version="1.0" encoding="UTF-8"?>
<!DOCTYPE ffml SYSTEM "Ffml.dtd">
<ffml version="1.0">
<forcefield name="MMFF" derivedFrom="MMFF" base="MMFF">
<atomTypes>
<atomType
name="C100"
element="C"
mass="12.011"
annotation=""/>
<atomType
name="O101"
element="O"
mass="16"
annotation=""/>
<atomType
name="N102"
element="N"
mass="14.007"
annotation=""/>
<atomType
name="H103"
element="H"
mass="1.008"
annotation=""/>
</atomTypes>
<parameters>
</parameters>
</forcefield>
</ffml>

> <Initial Potential Energy>
186.545

> <Initial RMS Gradient>
30.83864

> <Minimization Criteria>
CONJUG> Minimization exiting with gradient tolerance ( 0.0100000) satisfied.

> <CHARMm Energy>
90.79682

> <Potential Energy>
90.79682

> <RMS Gradient>
0.00895

> <Bond Energy>
6.24883

> <Angle Energy>
8.46731

> <STRBend>
0.90171

> <Dihedral Energy>
10.80101

> <OOPLane>
0.08014

> <Van der Waals Energy>
61.84628

> <Electrostatic Energy>
2.45154

> <Hydrogen Bond Energy>
0

> <Solvation Free Energy>
0

> <HasGasteigerCharges>
true

> <REMARK99>
REMARK  99  MacroMolecule created from Mol2 file
REMARK  99  CHEMBL514007
REMARK  99  PROTEIN
REMARK  99  GASTEIGER
REMARK  99
REMARK  99

$$$$
CHEMBL521289
  SciTegic05292516403D

 52 53  0  0  0  0            999 V2000
    0.9631  -17.7470    0.6843 C   0  0
    1.1658  -18.9389   -0.0114 C   0  0
    2.4440  -19.2906   -0.4617 C   0  0
    3.5162  -18.4230   -0.2073 C   0  0
    3.3188  -17.2274    0.4998 C   0  0
    2.0345  -16.8909    0.9386 C   0  0
    4.4839  -16.3223    0.7404 C   0  0
    4.4524  -15.4117    1.9531 C   0  0
    5.4744  -16.3429   -0.1047 N   0  0
    6.4620  -15.4066    0.2442 O   0  0
    7.4661  -15.3912   -0.7718 C   0  0
    8.4740  -14.3123   -0.4622 C   0  0
    9.8267  -14.6256   -0.2755 C   0  0
   10.7649  -13.6175   -0.0156 C   0  0
   10.3621  -12.2838    0.0624 C   0  0
    9.0113  -11.9726   -0.1137 C   0  0
    8.0740  -12.9732   -0.3773 C   0  0
    2.6667  -20.5891   -1.2029 C   0  0
    3.4108  -21.6551   -0.3812 C   0  0  1  0  0  0
    2.4320  -22.3339    0.5972 C   0  0
    3.9781  -22.5692   -1.3295 O   0  0
    4.9598  -23.4319   -0.7571 C   0  0
    5.4783  -24.3499   -1.8464 C   0  0
    2.1225  -21.5844    1.6841 O   0  0
    1.9727  -23.4593    0.4583 O   0  0
   11.1742  -11.2073    0.2998 O   0  0
   12.5644  -11.4684    0.4504 C   0  0
   -0.0372  -17.4786    1.0174 H   0  0
    0.3128  -19.5878   -0.2049 H   0  0
    4.5112  -18.6752   -0.5716 H   0  0
    1.8409  -15.9532    1.4526 H   0  0
    4.2120  -14.3941    1.6329 H   0  0
    5.4270  -15.4125    2.4507 H   0  0
    3.7207  -15.7414    2.6942 H   0  0
    7.9463  -16.3759   -0.8098 H   0  0
    7.0091  -15.1891   -1.7483 H   0  0
   10.1618  -15.6598   -0.3318 H   0  0
   11.8035  -13.9037    0.1156 H   0  0
    8.6907  -10.9346   -0.0543 H   0  0
    7.0298  -12.7009   -0.5161 H   0  0
    1.7076  -20.9904   -1.5571 H   0  0
    3.2308  -20.3613   -2.1179 H   0  0
    4.2301  -21.2108    0.1974 H   0  0
    5.7847  -22.8338   -0.3548 H   0  0
    4.5242  -24.0282    0.0505 H   0  0
    6.2406  -25.0290   -1.4545 H   0  0
    5.9110  -23.7684   -2.6672 H   0  0
    4.6616  -24.9426   -2.2716 H   0  0
    2.5349  -20.6976    1.6979 H   0  0
   13.0682  -10.5114    0.6170 H   0  0
   12.9835  -11.9122   -0.4587 H   0  0
   12.7537  -12.1014    1.3235 H   0  0
  1  2  2  0
  1 28  1  0
  2  3  1  0
  2 29  1  0
  3  4  2  0
  3 18  1  0
  4  5  1  0
  4 30  1  0
  5  6  2  0
  5  7  1  0
  6  1  1  0
  6 31  1  0
  7  8  1  0
  7  9  2  0
  8 32  1  0
  8 33  1  0
  8 34  1  0
  9 10  1  0
 10 11  1  0
 11 12  1  0
 11 35  1  0
 11 36  1  0
 12 13  2  0
 13 14  1  0
 13 37  1  0
 14 15  2  0
 14 38  1  0
 15 16  1  0
 15 26  1  0
 16 17  2  0
 16 39  1  0
 17 12  1  0
 17 40  1  0
 18 19  1  0
 18 41  1  0
 18 42  1  0
 19 20  1  0
 19 21  1  0
 19 43  1  0
 20 24  1  0
 20 25  2  0
 21 22  1  0
 22 23  1  0
 22 44  1  0
 22 45  1  0
 23 46  1  0
 23 47  1  0
 23 48  1  0
 24 49  1  0
 26 27  1  0
 27 50  1  0
 27 51  1  0
 27 52  1  0
M  END
> <Name>
CHEMBL521289

> <Clean Energy>
30.809601

> <chembl_id>
CHEMBL521289

> <chembl_pref_name>
None

> <efficacy>
1.55

> <Forcefield>
MMFF

> <ForcefieldBase>
MMFF

> <ForcefieldFFML>
<?xml version="1.0" encoding="UTF-8"?>
<!DOCTYPE ffml SYSTEM "Ffml.dtd">
<ffml version="1.0">
<forcefield name="MMFF" derivedFrom="MMFF" base="MMFF">
<atomTypes>
<atomType
name="C100"
element="C"
mass="12.011"
annotation=""/>
<atomType
name="N101"
element="N"
mass="14.007"
annotation=""/>
<atomType
name="O102"
element="O"
mass="16"
annotation=""/>
<atomType
name="H103"
element="H"
mass="1.008"
annotation=""/>
</atomTypes>
<parameters>
</parameters>
</forcefield>
</ffml>

> <Initial Potential Energy>
211.70328

> <Initial RMS Gradient>
25.94104

> <Minimization Criteria>
CONJUG> Minimization exiting with gradient tolerance ( 0.0100000) satisfied.

> <CHARMm Energy>
108.57466

> <Potential Energy>
108.57466

> <RMS Gradient>
0.00918

> <Bond Energy>
5.21458

> <Angle Energy>
13.38114

> <STRBend>
1.09148

> <Dihedral Energy>
1.09287

> <OOPLane>
0.02671

> <Van der Waals Energy>
51.86417

> <Electrostatic Energy>
35.9037

> <Hydrogen Bond Energy>
0

> <Solvation Free Energy>
0

> <HasGasteigerCharges>
true

> <REMARK99>
REMARK  99  MacroMolecule created from Mol2 file
REMARK  99  CHEMBL521289
REMARK  99  PROTEIN
REMARK  99  GASTEIGER
REMARK  99
REMARK  99

$$$$
CHEMBL166572
  SciTegic05292516403D

 63 66  0  0  0  0            999 V2000
   -0.9226    0.3061   -0.1339 N   0  0
   -1.2996   -0.9213   -0.7344 C   0  0
   -1.8888    1.2619    0.2569 C   0  0
   11.2055   -0.2063   -0.4517 C   0  0
   -1.6028   -2.0687    0.0190 C   0  0
   -3.0263    0.8933    1.0132 C   0  0
   10.0789   -1.1279    0.0201 C   0  0  1  0  0  0
   -1.6240   -2.1461    1.3852 O   0  0
   -3.2510   -0.3623    1.5266 O   0  0
   -2.0789   -0.9763    2.0717 C   0  0
   11.0423    0.9718   -0.7350 O   0  0
    9.2059   -1.4672   -1.1938 C   0  0
    0.4740    0.7210   -0.3773 C   0  0
    7.7433   -1.3405   -0.8512 C   0  0
   12.3955   -0.8468   -0.5587 O   0  0
    5.0424   -1.0497   -0.1459 C   0  0
   10.6467   -2.3484    0.5367 O   0  0
    7.0489   -2.4113   -0.2832 C   0  0
    7.0830   -0.1201   -1.0488 C   0  0
    5.7064   -2.2611    0.0668 C   0  0
    5.7371    0.0247   -0.6974 C   0  0
    1.4698   -0.3547    0.0720 C   0  0
   -1.3354   -1.0169   -2.1392 C   0  0
   -1.8031    2.6063   -0.1491 C   0  0
    3.7339   -1.0420    0.2447 O   0  0
   -4.0451    1.8143    1.2929 C   0  0
   -1.8596   -3.2845   -0.6266 C   0  0
    2.9164    0.0419   -0.2014 C   0  0
   10.9023   -2.2809    1.9447 C   0  0
   -1.6201   -2.2260   -2.7763 C   0  0
   -2.8092    3.5326    0.1574 C   0  0
   11.5654   -3.5758    2.3688 C   0  0
   -3.9343    3.1350    0.8711 C   0  0
   -1.8696   -3.3644   -2.0182 C   0  0
    9.5265   -0.6039    0.8104 H   0  0
   -2.3792   -1.3298    3.0652 H   0  0
   -1.2437   -0.2919    2.2749 H   0  0
    9.4150   -0.8087   -2.0470 H   0  0
    9.4021   -2.4873   -1.5489 H   0  0
    0.6211    0.9690   -1.4358 H   0  0
    0.7035    1.6267    0.1988 H   0  0
   12.2675   -1.7879   -0.2984 H   0  0
    7.5428   -3.3638   -0.1055 H   0  0
    7.6169    0.7312   -1.4705 H   0  0
    5.1670   -3.0967    0.5066 H   0  0
    5.2693    0.9897   -0.8560 H   0  0
    1.3404   -0.5627    1.1422 H   0  0
    1.2828   -1.3087   -0.4354 H   0  0
   -1.1580   -0.1328   -2.7460 H   0  0
   -0.9751    2.9517   -0.7600 H   0  0
   -4.9202    1.4961    1.8537 H   0  0
   -2.0733   -4.1717   -0.0353 H   0  0
    3.1731    0.9509    0.3542 H   0  0
    3.0480    0.2091   -1.2774 H   0  0
   11.5592   -1.4331    2.1663 H   0  0
    9.9551   -2.1543    2.4800 H   0  0
   -1.6524   -2.2757   -3.8613 H   0  0
   -2.7199    4.5606   -0.1850 H   0  0
   11.7762   -3.5733    3.4419 H   0  0
   12.5037   -3.7242    1.8242 H   0  0
   10.9234   -4.4318    2.1364 H   0  0
   -4.7235    3.8475    1.0956 H   0  0
   -2.0896   -4.3103   -2.5059 H   0  0
  2  1  1  0
  3  1  1  0
  4  7  1  0
  5  2  1  0
  6  3  2  0
  7 12  1  0
  7 35  1  0
  8  5  1  0
  9  6  1  0
 10  8  1  0
 10  9  1  0
 10 36  1  0
 10 37  1  0
 11  4  2  0
 12 14  1  0
 12 38  1  0
 12 39  1  0
 13  1  1  0
 13 40  1  0
 13 41  1  0
 14 19  2  0
 15  4  1  0
 15 42  1  0
 16 25  1  0
 17  7  1  0
 18 14  1  0
 18 20  2  0
 18 43  1  0
 19 21  1  0
 19 44  1  0
 20 16  1  0
 20 45  1  0
 21 16  2  0
 21 46  1  0
 22 13  1  0
 22 47  1  0
 22 48  1  0
 23  2  2  0
 23 49  1  0
 24  3  1  0
 24 50  1  0
 25 28  1  0
 26  6  1  0
 26 51  1  0
 27  5  2  0
 27 34  1  0
 27 52  1  0
 28 22  1  0
 28 53  1  0
 28 54  1  0
 29 17  1  0
 29 55  1  0
 29 56  1  0
 30 23  1  0
 30 57  1  0
 31 24  2  0
 31 58  1  0
 32 29  1  0
 32 59  1  0
 32 60  1  0
 32 61  1  0
 33 26  2  0
 33 31  1  0
 33 62  1  0
 34 30  2  0
 34 63  1  0
M  END
> <Name>
CHEMBL166572

> <Clean Energy>
54.778801

> <chembl_id>
CHEMBL166572

> <chembl_pref_name>
None

> <efficacy>
1.06

> <Forcefield>
MMFF

> <ForcefieldBase>
MMFF

> <ForcefieldFFML>
<?xml version="1.0" encoding="UTF-8"?>
<!DOCTYPE ffml SYSTEM "Ffml.dtd">
<ffml version="1.0">
<forcefield name="MMFF" derivedFrom="MMFF" base="MMFF">
<atomTypes>
<atomType
name="N100"
element="N"
mass="14.007"
annotation=""/>
<atomType
name="C101"
element="C"
mass="12.011"
annotation=""/>
<atomType
name="O102"
element="O"
mass="16"
annotation=""/>
<atomType
name="H103"
element="H"
mass="1.008"
annotation=""/>
</atomTypes>
<parameters>
</parameters>
</forcefield>
</ffml>

> <Initial Potential Energy>
347.45627

> <Initial RMS Gradient>
41.59533

> <Minimization Criteria>
CONJUG> Minimization exiting with gradient tolerance ( 0.0100000) satisfied.

> <CHARMm Energy>
120.83158

> <Potential Energy>
120.83158

> <RMS Gradient>
0.0089

> <Bond Energy>
6.86473

> <Angle Energy>
25.62554

> <STRBend>
1.33574

> <Dihedral Energy>
28.22407

> <OOPLane>
0.76598

> <Van der Waals Energy>
77.22982

> <Electrostatic Energy>
-19.21431

> <Hydrogen Bond Energy>
0

> <Solvation Free Energy>
0

> <HasGasteigerCharges>
true

> <REMARK99>
REMARK  99  MacroMolecule created from Mol2 file
REMARK  99  CHEMBL166572
REMARK  99  PROTEIN
REMARK  99  GASTEIGER
REMARK  99
REMARK  99

$$$$
CHEMBL1933093
  SciTegic05292516403D

 72 75  0  0  0  0            999 V2000
   23.8538  -20.7536   -0.0893 N   0  0
   25.0158  -21.4358    0.2570 C   0  0
   26.3021  -20.7096    0.1402 C   0  0
   24.9825  -22.5896    0.6761 O   0  0
   27.4332  -21.4116   -0.0147 C   0  0
   18.9226  -19.3933   -0.7511 C   0  0
   18.9055  -20.5042    0.0899 C   0  0
   20.1107  -21.1659    0.3721 C   0  0
   20.1290  -18.9585   -1.3106 C   0  0
   21.3291  -19.6227   -1.0281 C   0  0
   21.3320  -20.7323   -0.1766 C   0  0
   22.6028  -21.5154    0.0513 C   0  0
   23.8054  -19.4205   -0.7445 C   0  0  1  0  0  0
   22.6165  -19.2137   -1.6832 C   0  0
   23.8910  -18.2717    0.2733 C   0  0
   23.9293  -18.6753    1.5655 O   0  0
   24.0288  -17.0968   -0.0425 O   0  0
   17.7885  -21.0452    0.6734 O   0  0
   16.5316  -20.3912    0.4282 C   0  0
   15.4223  -21.1392    1.1761 C   0  0
   14.1193  -20.4127    1.1970 C   0  0
   13.7817  -19.2529    1.8540 C   0  0
   12.4711  -18.9926    1.5982 O   0  0
   12.0159  -20.0369    0.8088 C   0  0
   12.9999  -20.8934    0.5426 N   0  0
   14.4907  -18.2980    2.7225 C   0  0
   10.6618  -20.0995    0.3748 C   0  0
   10.1991  -21.1161   -0.3699 C   0  0
    8.7823  -21.2206   -0.8564 C   0  0
    8.0870  -22.4546   -0.2725 C   0  0
    6.6748  -22.6890   -0.8419 C   0  0
    6.1204  -24.0182   -0.3228 C   0  0
    5.7079  -21.5566   -0.4930 C   0  0
   28.7051  -20.7859   -0.1206 C   0  0
   29.8359  -21.5094   -0.4316 O   0  0
   30.8933  -20.6657   -0.4696 C   0  0
   30.4954  -19.3865   -0.1840 C   0  0
   29.1001  -19.4599    0.0393 C   0  0
   26.3085  -19.6327    0.2180 H   0  0
   27.4182  -22.4977   -0.0794 H   0  0
   18.0184  -18.8505   -1.0072 H   0  0
   20.0892  -22.0458    1.0135 H   0  0
   20.1230  -18.1022   -1.9822 H   0  0
   22.5894  -21.9502    1.0586 H   0  0
   22.6396  -22.3425   -0.6690 H   0  0
   24.7166  -19.3277   -1.3483 H   0  0
   22.7448  -19.8318   -2.5811 H   0  0
   22.5639  -18.1687   -2.0112 H   0  0
   23.6187  -19.6048    1.6347 H   0  0
   16.5904  -19.3563    0.7865 H   0  0
   16.3077  -20.3938   -0.6458 H   0  0
   15.2919  -22.1311    0.7260 H   0  0
   15.7429  -21.3281    2.2087 H   0  0
   13.8377  -17.9417    3.5253 H   0  0
   14.8258  -17.4334    2.1419 H   0  0
   15.3677  -18.7621    3.1838 H   0  0
   10.0143  -19.2844    0.6761 H   0  0
   10.8743  -21.9203   -0.6621 H   0  0
    8.2266  -20.3134   -0.5949 H   0  0
    8.7961  -21.2843   -1.9509 H   0  0
    8.7011  -23.3412   -0.4803 H   0  0
    8.0341  -22.3628    0.8205 H   0  0
    6.7431  -22.7580   -1.9350 H   0  0
    5.1317  -24.2206   -0.7480 H   0  0
    6.0252  -24.0102    0.7685 H   0  0
    6.7776  -24.8492   -0.6000 H   0  0
    4.6976  -21.7851   -0.8497 H   0  0
    6.0097  -20.6154   -0.9619 H   0  0
    5.6557  -21.3983    0.5895 H   0  0
   31.8430  -21.1210   -0.7086 H   0  0
   31.1276  -18.5114   -0.1397 H   0  0
   28.4503  -18.6341    0.2958 H   0  0
  1  2  1  0
  1 13  1  0
  2  3  1  0
  2  4  2  0
  3  5  2  0
  3 39  1  0
  5 34  1  0
  5 40  1  0
  6  7  2  0
  6 41  1  0
  7  8  1  0
  7 18  1  0
  8 11  2  0
  8 42  1  0
  9  6  1  0
  9 43  1  0
 10  9  2  0
 10 11  1  0
 10 14  1  0
 11 12  1  0
 12  1  1  0
 12 44  1  0
 12 45  1  0
 13 14  1  0
 13 15  1  0
 13 46  1  0
 14 47  1  0
 14 48  1  0
 15 16  1  0
 15 17  2  0
 16 49  1  0
 18 19  1  0
 19 20  1  0
 19 50  1  0
 19 51  1  0
 20 21  1  0
 20 52  1  0
 20 53  1  0
 21 22  2  0
 22 23  1  0
 22 26  1  0
 23 24  1  0
 24 25  2  0
 24 27  1  0
 25 21  1  0
 26 54  1  0
 26 55  1  0
 26 56  1  0
 27 28  2  0
 27 57  1  0
 28 29  1  0
 28 58  1  0
 29 30  1  0
 29 59  1  0
 29 60  1  0
 30 31  1  0
 30 61  1  0
 30 62  1  0
 31 32  1  0
 31 33  1  0
 31 63  1  0
 32 64  1  0
 32 65  1  0
 32 66  1  0
 33 67  1  0
 33 68  1  0
 33 69  1  0
 34 35  1  0
 35 36  1  0
 36 37  2  0
 36 70  1  0
 37 38  1  0
 37 71  1  0
 38 34  2  0
 38 72  1  0
M  END
> <Name>
CHEMBL1933093

> <Clean Energy>
75.237999

> <chembl_id>
CHEMBL1933093

> <chembl_pref_name>
None

> <efficacy>
1.073684211

> <Forcefield>
MMFF

> <ForcefieldBase>
MMFF

> <ForcefieldFFML>
<?xml version="1.0" encoding="UTF-8"?>
<!DOCTYPE ffml SYSTEM "Ffml.dtd">
<ffml version="1.0">
<forcefield name="MMFF" derivedFrom="MMFF" base="MMFF">
<atomTypes>
<atomType
name="N100"
element="N"
mass="14.007"
annotation=""/>
<atomType
name="C101"
element="C"
mass="12.011"
annotation=""/>
<atomType
name="O102"
element="O"
mass="16"
annotation=""/>
<atomType
name="H103"
element="H"
mass="1.008"
annotation=""/>
</atomTypes>
<parameters>
</parameters>
</forcefield>
</ffml>

> <Initial Potential Energy>
125.50049

> <Initial RMS Gradient>
23.45755

> <Minimization Criteria>
STEEPD> Minimization exiting with gradient tolerance ( 3.0000000) satisfied.

> <CHARMm Energy>
19.51565

> <Potential Energy>
19.51565

> <RMS Gradient>
0.01255

> <Bond Energy>
6.91346

> <Angle Energy>
20.14398

> <STRBend>
0.00033

> <Dihedral Energy>
-8.32046

> <OOPLane>
0.42408

> <Van der Waals Energy>
53.57975

> <Electrostatic Energy>
-53.22549

> <Hydrogen Bond Energy>
0

> <Solvation Free Energy>
0

> <HasGasteigerCharges>
true

> <REMARK99>
REMARK  99  MacroMolecule created from Mol2 file
REMARK  99  CHEMBL1933093
REMARK  99  PROTEIN
REMARK  99  GASTEIGER
REMARK  99
REMARK  99

$$$$
CHEMBL217907
  SciTegic05292516403D

 55 58  0  0  0  0            999 V2000
    9.0441  -25.9566   -1.7382 C   0  0
    8.5483  -24.7129   -1.0397 C   0  0
    7.6566  -25.2801    0.0761 C   0  0  2  0  0  0
    7.2036  -26.5753   -0.3983 O   0  0
    7.8330  -26.8541   -1.6604 C   0  0
    4.0536  -26.0133    2.8347 C   0  0
    2.9113  -26.0146    2.0452 C   0  0
    2.8739  -25.5563    0.7771 N   0  0
    4.0412  -25.0610    0.2946 C   0  0
    5.2433  -24.9876    1.0075 C   0  0
    5.2344  -25.4819    2.3117 C   0  0
    1.7627  -26.5346    2.6133 O   0  0
    0.5555  -26.2232    1.9025 C   0  0
    0.2287  -27.2966    0.8641 C   0  0
   -0.9312  -26.9070    0.0240 C   0  0
   -0.9514  -26.3665   -1.2429 C   0  0
   -2.2509  -26.0966   -1.5629 O   0  0
   -2.9700  -26.4983   -0.4628 C   0  0
   -2.2197  -27.0083    0.4980 N   0  0
   -4.3958  -26.2122   -0.4512 C   0  0
   -5.0307  -25.5546   -1.5153 C   0  0
   -6.3779  -25.2004   -1.4242 C   0  0
   -7.0983  -25.5029   -0.2655 C   0  0
   -6.4898  -26.1915    0.7844 C   0  0
   -5.1459  -26.5452    0.6885 C   0  0
    0.0808  -26.0052   -2.2294 C   0  0
    6.4653  -24.3487    0.3857 C   0  0
    8.5276  -25.4766    1.3286 C   0  0
    8.7244  -26.7863    1.6324 O   0  0
    9.0688  -24.5762    1.9562 O   0  0
   -8.4549  -25.0843   -0.1389 C   0  0
   -9.5581  -24.7411   -0.0341 N   0  0
    9.3783  -25.7781   -2.7635 H   0  0
    9.8771  -26.3939   -1.1754 H   0  0
    9.3680  -24.0825   -0.6807 H   0  0
    7.9636  -24.1202   -1.7539 H   0  0
    8.0883  -27.9158   -1.7155 H   0  0
    7.1121  -26.6231   -2.4520 H   0  0
    4.0174  -26.3988    3.8476 H   0  0
    3.9765  -24.6946   -0.7272 H   0  0
    6.1233  -25.4435    2.9376 H   0  0
   -0.2453  -26.1986    2.6524 H   0  0
    0.5818  -25.2119    1.4742 H   0  0
    1.0995  -27.5011    0.2312 H   0  0
    0.0147  -28.2430    1.3759 H   0  0
   -4.4725  -25.2887   -2.4113 H   0  0
   -6.8561  -24.6727   -2.2486 H   0  0
   -7.0498  -26.4389    1.6850 H   0  0
   -4.6720  -27.0612    1.5228 H   0  0
   -0.3621  -25.7903   -3.2069 H   0  0
    0.7982  -26.8219   -2.3555 H   0  0
    0.6269  -25.1162   -1.8993 H   0  0
    6.1357  -23.8811   -0.5522 H   0  0
    6.7822  -23.5115    1.0214 H   0  0
    8.1334  -27.3177    1.0459 H   0  0
  1  2  1  0
  1 33  1  0
  1 34  1  0
  2  3  1  0
  2 35  1  0
  2 36  1  0
  3  4  1  0
  3 28  1  0
  4  5  1  0
  5  1  1  0
  5 37  1  0
  5 38  1  0
  6  7  2  0
  6 39  1  0
  7  8  1  0
  7 12  1  0
  8  9  2  0
  9 10  1  0
  9 40  1  0
 10 11  2  0
 10 27  1  0
 11  6  1  0
 11 41  1  0
 12 13  1  0
 13 14  1  0
 13 42  1  0
 13 43  1  0
 14 15  1  0
 14 44  1  0
 14 45  1  0
 15 16  2  0
 16 17  1  0
 16 26  1  0
 17 18  1  0
 18 19  2  0
 18 20  1  0
 19 15  1  0
 20 21  2  0
 21 22  1  0
 21 46  1  0
 22 23  2  0
 22 47  1  0
 23 24  1  0
 23 31  1  0
 24 25  2  0
 24 48  1  0
 25 20  1  0
 25 49  1  0
 26 50  1  0
 26 51  1  0
 26 52  1  0
 27  3  1  0
 27 53  1  0
 27 54  1  0
 28 29  1  0
 28 30  2  0
 29 55  1  0
 31 32  3  0
M  END
> <Name>
CHEMBL217907

> <Clean Energy>
226.574997

> <chembl_id>
CHEMBL217907

> <chembl_pref_name>
None

> <efficacy>
1.043478261

> <Forcefield>
MMFF

> <ForcefieldBase>
MMFF

> <ForcefieldFFML>
<?xml version="1.0" encoding="UTF-8"?>
<!DOCTYPE ffml SYSTEM "Ffml.dtd">
<ffml version="1.0">
<forcefield name="MMFF" derivedFrom="MMFF" base="MMFF">
<atomTypes>
<atomType
name="C100"
element="C"
mass="12.011"
annotation=""/>
<atomType
name="O101"
element="O"
mass="16"
annotation=""/>
<atomType
name="N102"
element="N"
mass="14.007"
annotation=""/>
<atomType
name="H103"
element="H"
mass="1.008"
annotation=""/>
</atomTypes>
<parameters>
</parameters>
</forcefield>
</ffml>

> <Initial Potential Energy>
907.44573

> <Initial RMS Gradient>
208.27221

> <Minimization Criteria>
STEEPD> Minimization exiting with gradient tolerance ( 3.0000000) satisfied.

> <CHARMm Energy>
62.22932

> <Potential Energy>
62.22932

> <RMS Gradient>
0.04951

> <Bond Energy>
5.07802

> <Angle Energy>
11.72165

> <STRBend>
1.2809

> <Dihedral Energy>
4.08584

> <OOPLane>
0.28424

> <Van der Waals Energy>
47.96929

> <Electrostatic Energy>
-8.19062

> <Hydrogen Bond Energy>
0

> <Solvation Free Energy>
0

> <HasGasteigerCharges>
true

> <REMARK99>
REMARK  99  MacroMolecule created from Mol2 file
REMARK  99  CHEMBL217907
REMARK  99  PROTEIN
REMARK  99  GASTEIGER
REMARK  99
REMARK  99

$$$$
CHEMBL38508
  SciTegic05292516403D

 48 50  0  0  0  0            999 V2000
    3.4792   -2.0453   -0.4930 N   0  0
    3.8815   -0.8726   -0.0435 C   0  0
    2.5985    0.1923    0.3789 S   0  0
    1.4423   -1.0029   -0.0483 C   0  0
    8.0591    0.0627    0.4491 C   0  0
    9.5033    0.3999    0.6474 C   0  0
    2.0976   -2.1326   -0.5113 C   0  0
    7.0911    1.0311    0.6951 C   0  0
    5.3012   -0.5044    0.1221 C   0  0
    7.6455   -1.2045    0.0257 C   0  0
    5.7311    0.7643    0.5355 C   0  0
   -3.8237    2.6247   -0.9997 C   0  0
   -0.0176   -0.7285    0.1490 C   0  0
   -7.8562    3.1918    1.4766 C   0  0
   -4.6063    2.1262    0.0554 C   0  0
   -5.7235    2.8630    0.3713 O   0  0
    6.2838   -1.4793   -0.1352 C   0  0
   -0.7915   -0.0708   -1.3723 S   0  0
   -2.6670    1.9271   -1.3986 C   0  0
   -8.7918    2.9420    2.2248 O   0  0
   10.3371   -0.6450    0.3650 F   0  0
    9.9329    1.4242   -0.1411 F   0  0
    9.8031    0.7570    1.9284 F   0  0
   -4.2045    0.9493    0.6976 C   0  0
   -2.2608    0.7509   -0.7554 C   0  0
   -6.6255    2.3012    1.3276 C   0  0
    7.4658    2.2520    1.1014 F   0  0
   -7.8312    4.3011    0.6980 O   0  0
   -3.0447    0.2658    0.2918 C   0  0
    1.4934   -3.4036   -0.9938 C   0  0
   -4.2096    3.8867   -1.7215 C   0  0
    8.3769   -1.9866   -0.1779 H   0  0
    5.0321    1.5691    0.7449 H   0  0
   -0.5341   -1.6526    0.4302 H   0  0
   -0.1603   -0.0140    0.9678 H   0  0
    5.9829   -2.4751   -0.4630 H   0  0
   -2.0684    2.3138   -2.2232 H   0  0
   -4.7699    0.5253    1.5217 H   0  0
   -6.1416    2.2482    2.3085 H   0  0
   -6.9743    1.3204    0.9864 H   0  0
   -7.0003    4.3242    0.1758 H   0  0
   -2.7772   -0.6544    0.8038 H   0  0
    2.2657   -4.1113   -1.3110 H   0  0
    0.8353   -3.2141   -1.8474 H   0  0
    0.9073   -3.8734   -0.1980 H   0  0
   -5.1783    3.7581   -2.2151 H   0  0
   -3.4761    4.1532   -2.4897 H   0  0
   -4.2686    4.7232   -1.0175 H   0  0
  2  1  2  0
  3  2  1  0
  4  3  1  0
  4  7  2  0
  5  8  1  0
  5 10  2  0
  6  5  1  0
  7  1  1  0
  8 11  2  0
  9  2  1  0
 10 17  1  0
 10 32  1  0
 11  9  1  0
 11 33  1  0
 12 19  2  0
 13  4  1  0
 13 34  1  0
 13 35  1  0
 14 26  1  0
 15 12  1  0
 15 24  2  0
 16 15  1  0
 17  9  2  0
 17 36  1  0
 18 13  1  0
 19 25  1  0
 19 37  1  0
 20 14  2  0
 21  6  1  0
 22  6  1  0
 23  6  1  0
 24 29  1  0
 24 38  1  0
 25 18  1  0
 26 16  1  0
 26 39  1  0
 26 40  1  0
 27  8  1  0
 28 14  1  0
 28 41  1  0
 29 25  2  0
 29 42  1  0
 30  7  1  0
 30 43  1  0
 30 44  1  0
 30 45  1  0
 31 12  1  0
 31 46  1  0
 31 47  1  0
 31 48  1  0
M  END
> <Name>
CHEMBL38508

> <Clean Energy>
36.991901

> <chembl_id>
CHEMBL38508

> <chembl_pref_name>
None

> <efficacy>
1.79

> <Forcefield>
MMFF

> <ForcefieldBase>
MMFF

> <ForcefieldFFML>
<?xml version="1.0" encoding="UTF-8"?>
<!DOCTYPE ffml SYSTEM "Ffml.dtd">
<ffml version="1.0">
<forcefield name="MMFF" derivedFrom="MMFF" base="MMFF">
<atomTypes>
<atomType
name="N100"
element="N"
mass="14.007"
annotation=""/>
<atomType
name="C101"
element="C"
mass="12.011"
annotation=""/>
<atomType
name="S102"
element="S"
mass="32.066"
annotation=""/>
<atomType
name="O103"
element="O"
mass="16"
annotation=""/>
<atomType
name="F104"
element="F"
mass="18.998"
annotation=""/>
<atomType
name="H105"
element="H"
mass="1.008"
annotation=""/>
</atomTypes>
<parameters>
</parameters>
</forcefield>
</ffml>

> <Initial Potential Energy>
126.10032

> <Initial RMS Gradient>
28.85488

> <Minimization Criteria>
CONJUG> Minimization exiting with gradient tolerance ( 0.0100000) satisfied.

> <CHARMm Energy>
53.28804

> <Potential Energy>
53.28804

> <RMS Gradient>
0.00849

> <Bond Energy>
5.3143

> <Angle Energy>
12.61022

> <STRBend>
0.11691

> <Dihedral Energy>
0.39611

> <OOPLane>
0.02528

> <Van der Waals Energy>
45.69568

> <Electrostatic Energy>
-10.87045

> <Hydrogen Bond Energy>
0

> <Solvation Free Energy>
0

> <HasGasteigerCharges>
true

> <REMARK99>
REMARK  99  MacroMolecule created from Mol2 file
REMARK  99  CHEMBL38508
REMARK  99  PROTEIN
REMARK  99  GASTEIGER
REMARK  99
REMARK  99

$$$$
CHEMBL3597428
  SciTegic05292516403D

 70 74  0  0  0  0            999 V2000
   -1.6623    1.1007   -0.6648 C   0  0
   -1.6780   -0.2661   -0.4023 C   0  0
   -0.5209   -1.0355   -0.4970 C   0  0
   -0.4683    1.7334   -1.0406 C   0  0
    0.7259    0.9771   -1.1434 C   0  0
    0.6696   -0.3934   -0.8663 C   0  0
    1.9414   -0.8918   -1.0361 N   0  0
    2.7869    0.1073   -1.4417 C   0  0
    2.0831    1.2948   -1.5032 C   0  0
    2.6173    2.6433   -1.9002 C   0  0
    4.1341    2.6796   -1.9768 C   0  0
    4.7531    2.5907   -0.7679 O   0  0
    4.7814    2.7001   -3.0175 O   0  0
   -2.8850    1.6982   -0.5196 O   0  0
   -2.9411    3.1101   -0.6732 C   0  0
   -4.3444    3.5765   -0.2980 C   0  0
   -4.4146    5.0906   -0.3801 C   0  0
   -5.6877    5.5602    0.0841 O   0  0
   -5.6714    6.8780    0.4812 C   0  0
   -6.6213    7.2549    1.4265 C   0  0
   -6.6118    8.5528    1.9461 C   0  0
   -5.6358    9.4675    1.5405 C   0  0
   -4.6833    9.0964    0.5959 C   0  0
   -4.7521    7.8258    0.0200 C   0  0
   -3.7046   10.0199    0.3125 O   0  0
   -2.4720    9.4385   -0.1477 C   0  0
   -1.2843   10.3657    0.0024 C   0  0
   -1.4293   11.7175    0.3596 C   0  0
   -0.3026   12.5352    0.4965 C   0  0
    0.9699   12.0062    0.2744 C   0  0
    1.1359   10.6787   -0.0957 C   0  0
    0.0136    9.8640   -0.2349 C   0  0
    2.3378   -2.2834   -0.8854 C   0  0
    4.4253   -2.6689    0.4813 C   0  0
    3.0300   -2.5320    0.4316 C   0  0
    2.2985   -2.6284    1.6252 C   0  0
    2.9472   -2.8760    2.8365 C   0  0
    4.3327   -3.0215    2.8698 C   0  0
    5.0714   -2.9130    1.6938 C   0  0
    2.3527   13.0109    0.4605 Cl  0  0
    0.2830    8.2168   -0.7080 Cl  0  0
   -2.6139   -0.7412   -0.1158 H   0  0
   -0.5602   -2.0998   -0.2888 H   0  0
   -0.4304    2.7916   -1.2671 H   0  0
    3.8269   -0.1161   -1.6534 H   0  0
    2.2223    2.9176   -2.8853 H   0  0
    2.2880    3.4165   -1.1969 H   0  0
    4.0960    2.6244   -0.0402 H   0  0
   -2.2137    3.5896   -0.0063 H   0  0
   -2.7247    3.3806   -1.7137 H   0  0
   -5.0942    3.1178   -0.9539 H   0  0
   -4.6013    3.2362    0.7129 H   0  0
   -3.6041    5.4995    0.2384 H   0  0
   -4.2763    5.4047   -1.4219 H   0  0
   -7.3551    6.5331    1.7760 H   0  0
   -7.3465    8.8433    2.6918 H   0  0
   -5.6073   10.4607    1.9799 H   0  0
   -4.0646    7.5633   -0.7748 H   0  0
   -2.2578    8.5379    0.4424 H   0  0
   -2.5793    9.1947   -1.2116 H   0  0
   -2.4170   12.1459    0.5384 H   0  0
   -0.4240   13.5816    0.7779 H   0  0
    2.1297   10.2754   -0.2720 H   0  0
    1.4583   -2.9274   -0.9858 H   0  0
    2.9952   -2.5270   -1.7293 H   0  0
    5.0212   -2.5851   -0.4253 H   0  0
    1.2175   -2.5022    1.6213 H   0  0
    2.3745   -2.9599    3.7567 H   0  0
    4.8384   -3.2191    3.8121 H   0  0
    6.1529   -3.0216    1.7205 H   0  0
  1  2  2  0
  1 14  1  0
  2  3  1  0
  2 42  1  0
  3  6  2  0
  3 43  1  0
  4  1  1  0
  4 44  1  0
  5  4  2  0
  5  6  1  0
  6  7  1  0
  7  8  1  0
  7 33  1  0
  8  9  2  0
  8 45  1  0
  9  5  1  0
  9 10  1  0
 10 11  1  0
 10 46  1  0
 10 47  1  0
 11 12  1  0
 11 13  2  0
 12 48  1  0
 14 15  1  0
 15 16  1  0
 15 49  1  0
 15 50  1  0
 16 17  1  0
 16 51  1  0
 16 52  1  0
 17 18  1  0
 17 53  1  0
 17 54  1  0
 18 19  1  0
 19 20  2  0
 20 21  1  0
 20 55  1  0
 21 22  2  0
 21 56  1  0
 22 23  1  0
 22 57  1  0
 23 24  2  0
 23 25  1  0
 24 19  1  0
 24 58  1  0
 25 26  1  0
 26 27  1  0
 26 59  1  0
 26 60  1  0
 27 28  2  0
 28 29  1  0
 28 61  1  0
 29 30  2  0
 29 62  1  0
 30 31  1  0
 30 40  1  0
 31 32  2  0
 31 63  1  0
 32 27  1  0
 32 41  1  0
 33 64  1  0
 33 65  1  0
 34 35  2  0
 34 66  1  0
 35 33  1  0
 35 36  1  0
 36 37  2  0
 36 67  1  0
 37 38  1  0
 37 68  1  0
 38 39  2  0
 38 69  1  0
 39 34  1  0
 39 70  1  0
M  END
> <Name>
CHEMBL3597428

> <Clean Energy>
28.3953

> <chembl_id>
CHEMBL3597428

> <chembl_pref_name>
None

> <efficacy>
1.019

> <Forcefield>
MMFF

> <ForcefieldBase>
MMFF

> <ForcefieldFFML>
<?xml version="1.0" encoding="UTF-8"?>
<!DOCTYPE ffml SYSTEM "Ffml.dtd">
<ffml version="1.0">
<forcefield name="MMFF" derivedFrom="MMFF" base="MMFF">
<atomTypes>
<atomType
name="C100"
element="C"
mass="12.011"
annotation=""/>
<atomType
name="N101"
element="N"
mass="14.007"
annotation=""/>
<atomType
name="O102"
element="O"
mass="16"
annotation=""/>
<atomType
name="Cl103"
element="Cl"
mass="35.453"
annotation=""/>
<atomType
name="H104"
element="H"
mass="1.008"
annotation=""/>
</atomTypes>
<parameters>
</parameters>
</forcefield>
</ffml>

> <Initial Potential Energy>
226.39584

> <Initial RMS Gradient>
34.07246

> <Minimization Criteria>
STEEPD> Minimization exiting with gradient tolerance ( 3.0000000) satisfied.

> <CHARMm Energy>
74.51089

> <Potential Energy>
74.51089

> <RMS Gradient>
0.01518

> <Bond Energy>
7.66196

> <Angle Energy>
19.21885

> <STRBend>
0.21695

> <Dihedral Energy>
1.78912

> <OOPLane>
0.17225

> <Van der Waals Energy>
85.86491

> <Electrostatic Energy>
-40.41314

> <Hydrogen Bond Energy>
0

> <Solvation Free Energy>
0

> <HasGasteigerCharges>
true

> <REMARK99>
REMARK  99  MacroMolecule created from Mol2 file
REMARK  99  CHEMBL3597428
REMARK  99  PROTEIN
REMARK  99  GASTEIGER
REMARK  99
REMARK  99

$$$$
CHEMBL24038
  SciTegic05292516403D

 56 59  0  0  0  0            999 V2000
   -2.1793   -2.7920   -0.8095 N   0  0
   -4.4258   -1.6900    0.5064 O   0  0
   -3.1675   -3.6412   -0.2592 C   0  0
   -2.3872   -1.3971   -0.8090 C   0  0
   -4.2638   -3.0538    0.3995 C   0  0
   -3.5260   -0.8866   -0.1582 C   0  0
    8.2149   -0.7701    0.7706 C   0  0
    7.0507   -1.7357    0.4982 C   0  0  2  0  0  0
    8.6860   -0.5162    1.8708 O   0  0
    6.0371   -1.6413    1.6509 C   0  0
   -0.8292   -3.3346   -1.0402 C   0  0
    4.7097   -2.2582    1.2600 C   0  0
    8.7432   -0.2237   -0.3597 O   0  0
    2.3068   -3.4369    0.4248 C   0  0
    7.5096   -3.0872    0.3970 O   0  0
    3.6863   -1.4718    0.7149 C   0  0
    4.5185   -3.6410    1.3742 C   0  0
    3.3271   -4.2263    0.9503 C   0  0
    2.4908   -2.0607    0.2916 C   0  0
    1.2021   -4.1121   -0.0058 O   0  0
   -0.0580   -3.4928    0.2741 C   0  0
   -1.5546   -0.4663   -1.4454 C   0  0
   -3.1423   -5.0429   -0.3302 C   0  0
   -5.2564   -3.8266    1.0088 C   0  0
   -3.8098    0.4835   -0.1300 C   0  0
    8.0457   -3.4243   -0.8767 C   0  0
   -1.8320    0.9092   -1.4176 C   0  0
   -4.1394   -5.8212    0.2718 C   0  0
   -5.1897   -5.2137    0.9503 C   0  0
   -2.9620    1.3851   -0.7636 C   0  0
    8.4021   -4.8977   -0.8671 C   0  0
    6.5484   -1.4327   -0.4300 H   0  0
    6.4173   -2.1537    2.5443 H   0  0
    5.8717   -0.5953    1.9392 H   0  0
   -0.8724   -4.2970   -1.5638 H   0  0
   -0.2394   -2.7256   -1.7320 H   0  0
    8.2444   -0.4682   -1.1637 H   0  0
    3.8191   -0.3976    0.6031 H   0  0
    5.3098   -4.2733    1.7737 H   0  0
    3.1968   -5.3024    1.0301 H   0  0
    1.7282   -1.4323   -0.1573 H   0  0
   -0.5931   -4.1708    0.9486 H   0  0
    0.0213   -2.5374    0.8062 H   0  0
   -0.6726   -0.7743   -1.9959 H   0  0
   -2.3668   -5.5767   -0.8668 H   0  0
   -6.0799   -3.3409    1.5242 H   0  0
   -4.7026    0.8400    0.3779 H   0  0
    7.3030   -3.2292   -1.6578 H   0  0
    8.9431   -2.8305   -1.0753 H   0  0
   -1.1522    1.6011   -1.9108 H   0  0
   -4.0965   -6.9059    0.2023 H   0  0
   -5.9596   -5.8182    1.4209 H   0  0
   -3.2024    2.4468   -0.7575 H   0  0
    8.8189   -5.2047   -1.8304 H   0  0
    7.5172   -5.5067   -0.6543 H   0  0
    9.1333   -5.1125   -0.0808 H   0  0
  2  6  1  0
  3  1  1  0
  4  1  1  0
  5  2  1  0
  5  3  2  0
  6  4  2  0
  7  8  1  0
  8 10  1  0
  8 15  1  0
  8 32  1  0
  9  7  2  0
 10 12  1  0
 10 33  1  0
 10 34  1  0
 11  1  1  0
 11 35  1  0
 11 36  1  0
 12 16  1  0
 12 17  2  0
 13  7  1  0
 13 37  1  0
 14 20  1  0
 16 19  2  0
 16 38  1  0
 17 18  1  0
 17 39  1  0
 18 14  2  0
 18 40  1  0
 19 14  1  0
 19 41  1  0
 20 21  1  0
 21 11  1  0
 21 42  1  0
 21 43  1  0
 22  4  1  0
 22 44  1  0
 23  3  1  0
 23 45  1  0
 24  5  1  0
 24 46  1  0
 25  6  1  0
 25 30  2  0
 25 47  1  0
 26 15  1  0
 26 48  1  0
 26 49  1  0
 27 22  2  0
 27 50  1  0
 28 23  2  0
 28 51  1  0
 29 24  2  0
 29 28  1  0
 29 52  1  0
 30 27  1  0
 30 53  1  0
 31 26  1  0
 31 54  1  0
 31 55  1  0
 31 56  1  0
M  END
> <Name>
CHEMBL24038

> <Clean Energy>
21.792801

> <chembl_id>
CHEMBL24038

> <chembl_pref_name>
RAGAGLITAZAR

> <efficacy>
1.171

> <Forcefield>
MMFF

> <ForcefieldBase>
MMFF

> <ForcefieldFFML>
<?xml version="1.0" encoding="UTF-8"?>
<!DOCTYPE ffml SYSTEM "Ffml.dtd">
<ffml version="1.0">
<forcefield name="MMFF" derivedFrom="MMFF" base="MMFF">
<atomTypes>
<atomType
name="N100"
element="N"
mass="14.007"
annotation=""/>
<atomType
name="O101"
element="O"
mass="16"
annotation=""/>
<atomType
name="C102"
element="C"
mass="12.011"
annotation=""/>
<atomType
name="H103"
element="H"
mass="1.008"
annotation=""/>
</atomTypes>
<parameters>
</parameters>
</forcefield>
</ffml>

> <Initial Potential Energy>
217.71544

> <Initial RMS Gradient>
29.30164

> <Minimization Criteria>
CONJUG> Minimization exiting with gradient tolerance ( 0.0100000) satisfied.

> <CHARMm Energy>
122.3122

> <Potential Energy>
122.3122

> <RMS Gradient>
0.00941

> <Bond Energy>
6.17357

> <Angle Energy>
20.19285

> <STRBend>
1.35825

> <Dihedral Energy>
7.85403

> <OOPLane>
0.49895

> <Van der Waals Energy>
68.81984

> <Electrostatic Energy>
17.4147

> <Hydrogen Bond Energy>
0

> <Solvation Free Energy>
0

> <HasGasteigerCharges>
true

> <REMARK99>
REMARK  99  MacroMolecule created from Mol2 file
REMARK  99  CHEMBL24038
REMARK  99  PROTEIN
REMARK  99  GASTEIGER
REMARK  99
REMARK  99

$$$$
CHEMBL168166
  SciTegic05292516403D

 58 61  0  0  0  0            999 V2000
    2.8017   -5.1418    0.8679 S   0  0
    2.1692   -2.8720   -1.4698 O   0  0
    2.2656   -2.0618   -0.3628 C   0  0
    3.8987   -3.7148    0.5212 C   0  0  1  0  0  0
    3.1206   -2.4292    0.6831 C   0  0
    1.4929   -4.9756   -0.3574 C   0  0
    1.3263   -3.9544   -1.3104 C   0  0
   13.5484    0.6595   -1.1740 C   0  0
   12.7735   -0.6021   -0.7817 C   0  0  2  0  0  0
   13.0654    1.7819   -1.1988 O   0  0
   12.3157   -0.4601    0.6786 C   0  0
    5.1673   -3.8575    1.3768 C   0  0
   10.9931   -1.1354    0.9602 C   0  0
   14.8399    0.4045   -1.4988 O   0  0
    8.5295   -2.4002    1.4520 C   0  0
    6.2435   -2.8489    0.9712 C   0  0
   13.6959   -1.7087   -0.9531 O   0  0
   10.9141   -2.2129    1.8493 C   0  0
    9.8198   -0.6749    0.3499 C   0  0
    9.6907   -2.8405    2.0883 C   0  0
    8.5957   -1.3048    0.5923 C   0  0
    7.4037   -3.1122    1.7609 O   0  0
    3.1635   -1.6083    1.8190 C   0  0
    1.5417   -0.8729   -0.3325 C   0  0
    0.5479   -6.0193   -0.3425 C   0  0
    0.2736   -4.0100   -2.2373 C   0  0
   13.0068   -2.9412   -1.1957 C   0  0
    2.4162   -0.4278    1.8704 C   0  0
    1.6171   -0.0546    0.7910 C   0  0
   14.0458   -4.0112   -1.4706 C   0  0
   -0.5139   -6.0588   -1.2517 C   0  0
   -0.6474   -5.0549   -2.2039 C   0  0
    4.2296   -3.8096   -0.5215 H   0  0
   11.9540   -0.6901   -1.5051 H   0  0
   13.0865   -0.8670    1.3458 H   0  0
   12.1956    0.5940    0.9603 H   0  0
    4.9589   -3.7650    2.4503 H   0  0
    5.5950   -4.8626    1.2521 H   0  0
   14.9957   -0.5655   -1.4077 H   0  0
    6.4769   -2.9750   -0.0933 H   0  0
    5.9008   -1.8263    1.1587 H   0  0
   11.8034   -2.5793    2.3575 H   0  0
    9.8436    0.1851   -0.3174 H   0  0
    9.6376   -3.6856    2.7705 H   0  0
    7.7158   -0.9052    0.1004 H   0  0
    3.7770   -1.8673    2.6783 H   0  0
    0.9032   -0.5987   -1.1671 H   0  0
    0.6398   -6.8251    0.3842 H   0  0
    0.1733   -3.2259   -2.9836 H   0  0
   12.4189   -3.2248   -0.3208 H   0  0
   12.3469   -2.8371   -2.0636 H   0  0
    2.4495    0.2013    2.7576 H   0  0
    1.0359    0.8633    0.8346 H   0  0
   13.5699   -4.9762   -1.6660 H   0  0
   14.7240   -4.1177   -0.6175 H   0  0
   14.6608   -3.7383   -2.3344 H   0  0
   -1.2279   -6.8784   -1.2176 H   0  0
   -1.4642   -5.0850   -2.9197 H   0  0
  2  7  1  0
  3  2  1  0
  3  5  2  0
  4  1  1  0
  4 33  1  0
  5  4  1  0
  6  1  1  0
  7  6  2  0
  8  9  1  0
  9 11  1  0
  9 34  1  0
 10  8  2  0
 11 13  1  0
 11 35  1  0
 11 36  1  0
 12  4  1  0
 12 37  1  0
 12 38  1  0
 13 19  2  0
 14  8  1  0
 14 39  1  0
 15 22  1  0
 16 12  1  0
 16 40  1  0
 16 41  1  0
 17  9  1  0
 18 13  1  0
 18 20  2  0
 18 42  1  0
 19 21  1  0
 19 43  1  0
 20 15  1  0
 20 44  1  0
 21 15  2  0
 21 45  1  0
 22 16  1  0
 23  5  1  0
 23 46  1  0
 24  3  1  0
 24 47  1  0
 25  6  1  0
 25 48  1  0
 26  7  1  0
 26 32  2  0
 26 49  1  0
 27 17  1  0
 27 50  1  0
 27 51  1  0
 28 23  2  0
 28 52  1  0
 29 24  2  0
 29 28  1  0
 29 53  1  0
 30 27  1  0
 30 54  1  0
 30 55  1  0
 30 56  1  0
 31 25  2  0
 31 57  1  0
 32 31  1  0
 32 58  1  0
M  END
> <Name>
CHEMBL168166

> <Clean Energy>
42.854301

> <chembl_id>
CHEMBL168166

> <chembl_pref_name>
None

> <efficacy>
1.01

> <Forcefield>
MMFF

> <ForcefieldBase>
MMFF

> <ForcefieldFFML>
<?xml version="1.0" encoding="UTF-8"?>
<!DOCTYPE ffml SYSTEM "Ffml.dtd">
<ffml version="1.0">
<forcefield name="MMFF" derivedFrom="MMFF" base="MMFF">
<atomTypes>
<atomType
name="S100"
element="S"
mass="32.066"
annotation=""/>
<atomType
name="O101"
element="O"
mass="16"
annotation=""/>
<atomType
name="C102"
element="C"
mass="12.011"
annotation=""/>
<atomType
name="H103"
element="H"
mass="1.008"
annotation=""/>
</atomTypes>
<parameters>
</parameters>
</forcefield>
</ffml>

> <Initial Potential Energy>
226.42349

> <Initial RMS Gradient>
28.10432

> <Minimization Criteria>
CONJUG> Minimization exiting with gradient tolerance ( 0.0100000) satisfied.

> <CHARMm Energy>
95.45685

> <Potential Energy>
95.45685

> <RMS Gradient>
0.00977

> <Bond Energy>
6.68749

> <Angle Energy>
16.9724

> <STRBend>
1.01095

> <Dihedral Energy>
10.05967

> <OOPLane>
0.04629

> <Van der Waals Energy>
70.39195

> <Electrostatic Energy>
-9.7119

> <Hydrogen Bond Energy>
0

> <Solvation Free Energy>
0

> <HasGasteigerCharges>
true

> <REMARK99>
REMARK  99  MacroMolecule created from Mol2 file
REMARK  99  CHEMBL168166
REMARK  99  PROTEIN
REMARK  99  GASTEIGER
REMARK  99
REMARK  99

$$$$
CHEMBL5080884
  SciTegic05292516403D

 45 47  0  0  0  0            999 V2000
   17.9317  -21.5312    0.0930 C   0  0
   18.3626  -22.6206    0.8616 C   0  0
   19.5312  -23.3177    0.5301 C   0  0
   20.3001  -22.9253   -0.5673 C   0  0
   19.8751  -21.8413   -1.3386 C   0  0
   18.7103  -21.1421   -1.0043 C   0  0
   16.7126  -20.8118    0.4976 C   0  0
   15.9109  -20.1474   -0.3494 C   0  0
   14.7056  -19.4602    0.1577 C   0  0
   14.2320  -18.5692   -0.7382 O   0  0
   14.1902  -19.6547    1.2442 O   0  0
   21.7993  -23.7741   -1.0312 S   0  0
   22.7222  -23.6855    0.5410 C   0  0
   24.1669  -23.9924    0.3367 C   0  0
   24.8145  -25.2115    0.2363 C   0  0
   26.1898  -25.1245    0.1078 N   0  0
   26.5907  -23.8676    0.1058 C   0  0
   25.3121  -22.7223    0.2306 S   0  0
   24.1971  -26.5640    0.2636 C   0  0
   28.0081  -23.4636    0.0231 C   0  0
   28.9887  -24.4653   -0.1055 C   0  0
   30.3504  -24.1514   -0.1620 C   0  0
   30.7655  -22.8177   -0.0907 C   0  0
   29.7986  -21.8256    0.0304 C   0  0
   28.4391  -22.1313    0.0858 C   0  0
   32.2104  -22.4332   -0.1306 C   0  0
   33.0435  -23.5071   -0.2687 F   0  0
   32.5222  -21.6028   -1.1644 F   0  0
   32.6305  -21.8010    1.0019 F   0  0
   30.1719  -20.5408    0.1044 F   0  0
   17.7855  -22.9478    1.7247 H   0  0
   19.8256  -24.1698    1.1370 H   0  0
   20.4573  -21.5185   -2.1995 H   0  0
   18.4373  -20.2842   -1.6125 H   0  0
   16.4644  -20.8546    1.5580 H   0  0
   16.1040  -20.1145   -1.4125 H   0  0
   14.7903  -18.4555   -1.5286 H   0  0
   22.5967  -22.6880    0.9777 H   0  0
   22.2894  -24.4033    1.2463 H   0  0
   24.9641  -27.3443    0.2923 H   0  0
   23.5851  -26.7220   -0.6296 H   0  0
   23.5633  -26.6815    1.1480 H   0  0
   28.6882  -25.5127   -0.1573 H   0  0
   31.0812  -24.9546   -0.2563 H   0  0
   27.7444  -21.3031    0.1860 H   0  0
  1  2  2  0
  1  7  1  0
  2  3  1  0
  2 31  1  0
  3  4  2  0
  3 32  1  0
  4  5  1  0
  4 12  1  0
  5  6  2  0
  5 33  1  0
  6  1  1  0
  6 34  1  0
  7  8  2  0
  7 35  1  0
  8  9  1  0
  8 36  1  0
  9 10  1  0
  9 11  2  0
 10 37  1  0
 12 13  1  0
 13 14  1  0
 13 38  1  0
 13 39  1  0
 14 15  2  0
 15 16  1  0
 15 19  1  0
 16 17  2  0
 17 18  1  0
 17 20  1  0
 18 14  1  0
 19 40  1  0
 19 41  1  0
 19 42  1  0
 20 21  2  0
 21 22  1  0
 21 43  1  0
 22 23  2  0
 22 44  1  0
 23 24  1  0
 23 26  1  0
 24 25  2  0
 24 30  1  0
 25 20  1  0
 25 45  1  0
 26 27  1  0
 26 28  1  0
 26 29  1  0
M  END
> <Name>
CHEMBL5080884

> <Clean Energy>
36.321701

> <chembl_id>
CHEMBL5080884

> <chembl_pref_name>
None

> <efficacy>
1.14

> <Forcefield>
MMFF

> <ForcefieldBase>
MMFF

> <ForcefieldFFML>
<?xml version="1.0" encoding="UTF-8"?>
<!DOCTYPE ffml SYSTEM "Ffml.dtd">
<ffml version="1.0">
<forcefield name="MMFF" derivedFrom="MMFF" base="MMFF">
<atomTypes>
<atomType
name="C100"
element="C"
mass="12.011"
annotation=""/>
<atomType
name="O101"
element="O"
mass="16"
annotation=""/>
<atomType
name="S102"
element="S"
mass="32.066"
annotation=""/>
<atomType
name="N103"
element="N"
mass="14.007"
annotation=""/>
<atomType
name="F104"
element="F"
mass="18.998"
annotation=""/>
<atomType
name="H105"
element="H"
mass="1.008"
annotation=""/>
</atomTypes>
<parameters>
</parameters>
</forcefield>
</ffml>

> <Initial Potential Energy>
91.39788

> <Initial RMS Gradient>
30.03898

> <Minimization Criteria>
CONJUG> Minimization exiting with gradient tolerance ( 0.0100000) satisfied.

> <CHARMm Energy>
25.10294

> <Potential Energy>
25.10294

> <RMS Gradient>
0.00954

> <Bond Energy>
4.42875

> <Angle Energy>
6.50746

> <STRBend>
-0.14573

> <Dihedral Energy>
7.27664

> <OOPLane>
0.02367

> <Van der Waals Energy>
43.4478

> <Electrostatic Energy>
-36.43565

> <Hydrogen Bond Energy>
0

> <Solvation Free Energy>
0

> <HasGasteigerCharges>
true

> <REMARK99>
REMARK  99  MacroMolecule created from Mol2 file
REMARK  99  CHEMBL5080884
REMARK  99  PROTEIN
REMARK  99  GASTEIGER
REMARK  99
REMARK  99

$$$$
CHEMBL1170852
  SciTegic05292516403D

 71 73  0  0  0  0            999 V2000
   -1.3788   -8.1891    0.0712 C   0  0
   -0.0152   -8.2893    0.2384 C   0  0
    0.7370   -7.3369   -0.4090 C   0  0
    0.1983   -6.3285   -1.1136 N   0  0
   -1.1437   -6.3202   -1.1964 C   0  0
   -1.9886   -7.2112   -0.6265 N   0  0
   -2.1814   -8.9868    0.8453 O   0  0
   -2.8088  -10.0408    0.0992 C   0  0
    2.1033   -7.3849   -0.2020 O   0  0
    2.9035   -6.7933   -1.2379 C   0  0
   -1.8847   -4.9587   -2.0401 S   0  0
   -2.8820   -4.3192   -0.6432 C   0  0  2  0  0  0
   -4.3267   -4.7679   -0.8251 C   0  0
   -4.5229   -6.1110   -0.7311 O   0  0
   -5.2616   -3.9972   -1.0110 O   0  0
   -2.7857   -2.7829   -0.5648 C   0  0
   -1.4047   -2.2811   -0.1206 C   0  0
   -1.3049   -0.7542   -0.0636 C   0  0
   -2.1800   -0.1246    1.0093 C   0  0
    3.9187   -5.8135   -0.6263 C   0  0
    5.3382   -6.3248   -0.4429 C   0  0
   -2.4413  -11.3640    0.7821 C   0  0
   -3.3800  -12.5090    0.4973 C   0  0
   -3.0947  -13.4594   -0.4871 C   0  0
   -3.9573  -14.5455   -0.6925 C   0  0
   -5.1216  -14.7019    0.0709 C   0  0
   -5.4070  -13.7502    1.0468 C   0  0
   -4.5480  -12.6619    1.2539 C   0  0
    6.0086   -6.1356    0.7742 C   0  0
    7.3604   -6.4912    0.9244 C   0  0
    8.0709   -7.0458   -0.1404 C   0  0
    7.3962   -7.2424   -1.3529 C   0  0
    6.0523   -6.8818   -1.5088 C   0  0
   -5.8621  -15.8038   -0.2501 O   0  0
    9.3890   -7.4172   -0.1559 O   0  0
   -7.0820  -16.0740    0.4354 C   0  0
   10.1464   -7.3915    1.0518 C   0  0
   -6.8466  -16.5666    1.6716 F   0  0
   -7.7759  -17.0045   -0.2580 F   0  0
   -7.8329  -14.9530    0.5200 F   0  0
   10.4506   -6.1241    1.4032 F   0  0
   11.3010   -8.0694    0.8649 F   0  0
    9.4608   -7.9855    2.0541 F   0  0
    0.4471   -9.0417    0.8628 H   0  0
   -3.8895   -9.8643    0.1409 H   0  0
   -2.5123  -10.0577   -0.9581 H   0  0
    3.3921   -7.6157   -1.7705 H   0  0
    2.3090   -6.2522   -1.9827 H   0  0
   -2.5362   -4.7200    0.3175 H   0  0
   -3.7013   -6.6500   -0.6177 H   0  0
   -3.0586   -2.3300   -1.5270 H   0  0
   -3.5325   -2.4301    0.1575 H   0  0
   -1.1589   -2.7009    0.8623 H   0  0
   -0.6362   -2.6362   -0.8159 H   0  0
   -0.2617   -0.4835    0.1387 H   0  0
   -1.5591   -0.3263   -1.0402 H   0  0
   -1.9841    0.9510    1.0695 H   0  0
   -1.9740   -0.5613    1.9915 H   0  0
   -3.2434   -0.2539    0.7880 H   0  0
    3.9999   -4.9408   -1.2881 H   0  0
    3.5328   -5.4424    0.3312 H   0  0
   -1.4162  -11.6398    0.5009 H   0  0
   -2.3926  -11.2185    1.8703 H   0  0
   -2.1929  -13.3756   -1.0905 H   0  0
   -3.7178  -15.2824   -1.4580 H   0  0
   -6.2877  -13.8035    1.6763 H   0  0
   -4.7984  -11.9400    2.0300 H   0  0
    5.4779   -5.6861    1.6135 H   0  0
    7.8315   -6.2966    1.8840 H   0  0
    7.9383   -7.6607   -2.2003 H   0  0
    5.5726   -7.0210   -2.4757 H   0  0
  1  2  2  0
  1  7  1  0
  2  3  1  0
  2 44  1  0
  3  4  2  0
  3  9  1  0
  4  5  1  0
  5  6  2  0
  5 11  1  0
  6  1  1  0
  7  8  1  0
  8 22  1  0
  8 45  1  0
  8 46  1  0
  9 10  1  0
 10 20  1  0
 10 47  1  0
 10 48  1  0
 11 12  1  0
 12 13  1  0
 12 16  1  0
 12 49  1  0
 13 14  1  0
 13 15  2  0
 14 50  1  0
 16 17  1  0
 16 51  1  0
 16 52  1  0
 17 18  1  0
 17 53  1  0
 17 54  1  0
 18 19  1  0
 18 55  1  0
 18 56  1  0
 19 57  1  0
 19 58  1  0
 19 59  1  0
 20 21  1  0
 20 60  1  0
 20 61  1  0
 21 29  2  0
 22 23  1  0
 22 62  1  0
 22 63  1  0
 23 24  2  0
 24 25  1  0
 24 64  1  0
 25 26  2  0
 25 65  1  0
 26 27  1  0
 26 34  1  0
 27 28  2  0
 27 66  1  0
 28 23  1  0
 28 67  1  0
 29 30  1  0
 29 68  1  0
 30 31  2  0
 30 69  1  0
 31 32  1  0
 31 35  1  0
 32 33  2  0
 32 70  1  0
 33 21  1  0
 33 71  1  0
 34 36  1  0
 35 37  1  0
 36 38  1  0
 36 39  1  0
 36 40  1  0
 37 41  1  0
 37 42  1  0
 37 43  1  0
M  END
> <Name>
CHEMBL1170852

> <Clean Energy>
20.826401

> <chembl_id>
CHEMBL1170852

> <chembl_pref_name>
None

> <efficacy>
1.092117759

> <Forcefield>
MMFF

> <ForcefieldBase>
MMFF

> <ForcefieldFFML>
<?xml version="1.0" encoding="UTF-8"?>
<!DOCTYPE ffml SYSTEM "Ffml.dtd">
<ffml version="1.0">
<forcefield name="MMFF" derivedFrom="MMFF" base="MMFF">
<atomTypes>
<atomType
name="C100"
element="C"
mass="12.011"
annotation=""/>
<atomType
name="N101"
element="N"
mass="14.007"
annotation=""/>
<atomType
name="O102"
element="O"
mass="16"
annotation=""/>
<atomType
name="S103"
element="S"
mass="32.066"
annotation=""/>
<atomType
name="F104"
element="F"
mass="18.998"
annotation=""/>
<atomType
name="H105"
element="H"
mass="1.008"
annotation=""/>
</atomTypes>
<parameters>
</parameters>
</forcefield>
</ffml>

> <Initial Potential Energy>
73.1605

> <Initial RMS Gradient>
27.68746

> <Minimization Criteria>
STEEPD> Minimization exiting with gradient tolerance ( 3.0000000) satisfied.

> <CHARMm Energy>
-45.24426

> <Potential Energy>
-45.24426

> <RMS Gradient>
0.06225

> <Bond Energy>
6.38615

> <Angle Energy>
35.44722

> <STRBend>
0.23661

> <Dihedral Energy>
6.36667

> <OOPLane>
0.42623

> <Van der Waals Energy>
72.15271

> <Electrostatic Energy>
-166.25985

> <Hydrogen Bond Energy>
0

> <Solvation Free Energy>
0

> <HasGasteigerCharges>
true

> <REMARK99>
REMARK  99  MacroMolecule created from Mol2 file
REMARK  99  CHEMBL1170852
REMARK  99  PROTEIN
REMARK  99  GASTEIGER
REMARK  99
REMARK  99

$$$$
CHEMBL2180634
  SciTegic05292516403D

 49 51  0  0  0  0            999 V2000
   11.2983  -11.6333   -1.0380 N   0  0
   10.1796  -11.5796   -0.2231 C   0  0
    9.8664  -10.2327   -0.0798 C   0  0
   10.7334   -9.4762   -0.8947 C   0  0
   11.5833  -10.3658   -1.5034 C   0  0
    9.4681  -12.6664    0.3961 C   0  0
    8.7489  -12.6173    1.3829 O   0  0
    9.5945  -13.8198   -0.2878 O   0  0
   12.0997  -12.8083   -1.3940 C   0  0
   12.7649  -13.4833   -0.2034 C   0  0
   13.6771  -12.8451    0.6676 C   0  0
   14.1466  -13.5589    1.7916 C   0  0
   13.7848  -14.8866    2.0219 C   0  0
   12.9429  -15.5326    1.1320 C   0  0
   12.4546  -14.8405    0.0257 C   0  0
   14.1558  -11.4223    0.4469 C   0  0
   15.5434  -11.2236    0.8024 N   0  0
   16.5500  -11.5520   -0.0766 C   0  0
   16.3199  -11.9525   -1.2104 O   0  0
   17.7883  -11.3898    0.5030 N   0  0
   19.0238  -11.8483    0.0083 C   0  0
   20.1698  -11.5462    0.7552 C   0  0
   21.4240  -12.0333    0.3709 C   0  0
   21.5306  -12.8454   -0.7565 C   0  0
   20.4039  -13.1054   -1.5337 C   0  0
   19.1548  -12.6172   -1.1483 C   0  0
   22.6964  -13.4054   -1.1914 O   0  0
   23.4816  -13.9895   -0.1572 C   0  0
   24.3453  -14.8687   -0.7110 F   0  0
   24.2043  -13.0471    0.4889 F   0  0
   22.7052  -14.6550    0.7282 F   0  0
    9.0573   -9.8499    0.5308 H   0  0
   10.7344   -8.4024   -1.0302 H   0  0
   12.3952  -10.1998   -2.2018 H   0  0
    9.0620  -14.4381    0.2523 H   0  0
   11.4350  -13.4845   -1.9431 H   0  0
   12.8749  -12.4962   -2.1040 H   0  0
   14.8313  -13.0889    2.4937 H   0  0
   14.1914  -15.4148    2.8802 H   0  0
   12.6414  -16.5648    1.2996 H   0  0
   11.7891  -15.3680   -0.6564 H   0  0
   14.0552  -11.1318   -0.6005 H   0  0
   13.5563  -10.7416    1.0604 H   0  0
   15.7588  -10.9311    1.7399 H   0  0
   17.8104  -10.8814    1.3719 H   0  0
   20.1037  -10.9359    1.6520 H   0  0
   22.2938  -11.7657    0.9658 H   0  0
   20.4828  -13.7146   -2.4310 H   0  0
   18.2996  -12.8770   -1.7645 H   0  0
  1  2  1  0
  1  5  1  0
  1  9  1  0
  2  3  2  0
  2  6  1  0
  3  4  1  0
  3 32  1  0
  4  5  2  0
  4 33  1  0
  5 34  1  0
  6  7  2  0
  6  8  1  0
  8 35  1  0
  9 10  1  0
  9 36  1  0
  9 37  1  0
 10 11  1  0
 10 15  2  0
 11 12  2  0
 11 16  1  0
 12 13  1  0
 12 38  1  0
 13 14  2  0
 13 39  1  0
 14 15  1  0
 14 40  1  0
 15 41  1  0
 16 17  1  0
 16 42  1  0
 16 43  1  0
 17 18  1  0
 17 44  1  0
 18 19  2  0
 18 20  1  0
 20 21  1  0
 20 45  1  0
 21 22  1  0
 21 26  2  0
 22 23  2  0
 22 46  1  0
 23 24  1  0
 23 47  1  0
 24 25  2  0
 24 27  1  0
 25 26  1  0
 25 48  1  0
 26 49  1  0
 27 28  1  0
 28 29  1  0
 28 30  1  0
 28 31  1  0
M  END
> <Name>
CHEMBL2180634

> <Clean Energy>
53.587101

> <chembl_id>
CHEMBL2180634

> <chembl_pref_name>
None

> <efficacy>
1.215574549

> <Forcefield>
MMFF

> <ForcefieldBase>
MMFF

> <ForcefieldFFML>
<?xml version="1.0" encoding="UTF-8"?>
<!DOCTYPE ffml SYSTEM "Ffml.dtd">
<ffml version="1.0">
<forcefield name="MMFF" derivedFrom="MMFF" base="MMFF">
<atomTypes>
<atomType
name="N100"
element="N"
mass="14.007"
annotation=""/>
<atomType
name="C101"
element="C"
mass="12.011"
annotation=""/>
<atomType
name="O102"
element="O"
mass="16"
annotation=""/>
<atomType
name="F103"
element="F"
mass="18.998"
annotation=""/>
<atomType
name="H104"
element="H"
mass="1.008"
annotation=""/>
</atomTypes>
<parameters>
</parameters>
</forcefield>
</ffml>

> <Initial Potential Energy>
101.65719

> <Initial RMS Gradient>
34.6676

> <Minimization Criteria>
STEEPD> Minimization exiting with gradient tolerance ( 3.0000000) satisfied.

> <CHARMm Energy>
-52.66568

> <Potential Energy>
-52.66568

> <RMS Gradient>
0.0522

> <Bond Energy>
5.07061

> <Angle Energy>
15.4637

> <STRBend>
0.35059

> <Dihedral Energy>
9.91146

> <OOPLane>
0.1793

> <Van der Waals Energy>
50.29023

> <Electrostatic Energy>
-133.93157

> <Hydrogen Bond Energy>
0

> <Solvation Free Energy>
0

> <HasGasteigerCharges>
true

> <REMARK99>
REMARK  99  MacroMolecule created from Mol2 file
REMARK  99  CHEMBL2180634
REMARK  99  PROTEIN
REMARK  99  GASTEIGER
REMARK  99
REMARK  99

$$$$
CHEMBL1813003
  SciTegic05292516403D

 48 50  0  0  0  0            999 V2000
    1.4583    2.7303   -1.5426 C   0  0
    0.5673    2.0084   -0.7477 C   0  0
    0.9779    1.5443    0.4999 C   0  0
    2.2624    1.8423    0.9664 C   0  0
    3.1560    2.5880    0.1829 C   0  0
    2.7438    3.0263   -1.0809 C   0  0
    4.5593    2.8677    0.6726 C   0  0
    5.5577    1.8065    0.2026 C   0  0  1  0  0  0
    6.9717    2.2689    0.5458 C   0  0
    5.3365    0.5700    0.9227 O   0  0
    4.9309   -0.4921    0.0538 C   0  0
    4.6442   -1.7148    0.9016 C   0  0
    7.5359    3.2394    0.0606 O   0  0
    7.5723    1.4679    1.4697 O   0  0
   -0.6486    1.7393   -1.3093 O   0  0
   -1.7821    1.7988   -0.4311 C   0  0
   -2.5728    0.5337   -0.4140 C   0  0
   -3.8422    0.5090    0.1347 N   0  0
   -4.2869   -0.7268   -0.0529 C   0  0
   -3.3416   -1.5333   -0.6530 O   0  0
   -2.2682   -0.7243   -0.8855 C   0  0
   -1.1050   -1.3332   -1.5546 C   0  0
   -5.5866   -1.1801    0.3574 C   0  0
   -6.5795   -0.4310    0.9606 C   0  0
   -7.7504   -1.1968    1.2410 C   0  0
   -7.6123   -2.5071    0.8431 C   0  0
   -6.0844   -2.8053    0.1352 S   0  0
    1.1472    3.0692   -2.5278 H   0  0
    0.3284    0.9307    1.1171 H   0  0
    2.5685    1.4680    1.9416 H   0  0
    3.4164    3.5974   -1.7172 H   0  0
    4.8604    3.8646    0.3257 H   0  0
    4.5492    2.9199    1.7695 H   0  0
    5.5210    1.6426   -0.8817 H   0  0
    4.0324   -0.2057   -0.5021 H   0  0
    5.7386   -0.7092   -0.6537 H   0  0
    4.3355   -2.5585    0.2781 H   0  0
    3.8518   -1.5026    1.6271 H   0  0
    5.5317   -2.0039    1.4742 H   0  0
    6.9006    0.7809    1.7094 H   0  0
   -1.5299    2.0955    0.5937 H   0  0
   -2.4274    2.5942   -0.8240 H   0  0
   -0.2088   -1.2327   -0.9350 H   0  0
   -0.9179   -0.8487   -2.5175 H   0  0
   -1.2665   -2.3998   -1.7402 H   0  0
   -6.4722    0.6227    1.1911 H   0  0
   -8.6438   -0.8043    1.7108 H   0  0
   -8.3336   -3.3072    0.9323 H   0  0
  1  2  2  0
  1 28  1  0
  2  3  1  0
  2 15  1  0
  3  4  2  0
  3 29  1  0
  4  5  1  0
  4 30  1  0
  5  6  2  0
  5  7  1  0
  6  1  1  0
  6 31  1  0
  7  8  1  0
  7 32  1  0
  7 33  1  0
  8  9  1  0
  8 10  1  0
  8 34  1  0
  9 13  2  0
  9 14  1  0
 10 11  1  0
 11 12  1  0
 11 35  1  0
 11 36  1  0
 12 37  1  0
 12 38  1  0
 12 39  1  0
 14 40  1  0
 15 16  1  0
 16 17  1  0
 16 41  1  0
 16 42  1  0
 17 18  1  0
 18 19  2  0
 19 20  1  0
 19 23  1  0
 20 21  1  0
 21 17  2  0
 21 22  1  0
 22 43  1  0
 22 44  1  0
 22 45  1  0
 23 24  2  0
 24 25  1  0
 24 46  1  0
 25 26  2  0
 25 47  1  0
 26 27  1  0
 26 48  1  0
 27 23  1  0
M  END
> <Name>
CHEMBL1813003

> <Clean Energy>
55.243198

> <chembl_id>
CHEMBL1813003

> <chembl_pref_name>
None

> <efficacy>
1.07

> <Forcefield>
MMFF

> <ForcefieldBase>
MMFF

> <ForcefieldFFML>
<?xml version="1.0" encoding="UTF-8"?>
<!DOCTYPE ffml SYSTEM "Ffml.dtd">
<ffml version="1.0">
<forcefield name="MMFF" derivedFrom="MMFF" base="MMFF">
<atomTypes>
<atomType
name="C100"
element="C"
mass="12.011"
annotation=""/>
<atomType
name="O101"
element="O"
mass="16"
annotation=""/>
<atomType
name="N102"
element="N"
mass="14.007"
annotation=""/>
<atomType
name="S103"
element="S"
mass="32.066"
annotation=""/>
<atomType
name="H104"
element="H"
mass="1.008"
annotation=""/>
</atomTypes>
<parameters>
</parameters>
</forcefield>
</ffml>

> <Initial Potential Energy>
148.85063

> <Initial RMS Gradient>
25.00732

> <Minimization Criteria>
CONJUG> Minimization exiting with gradient tolerance ( 0.0100000) satisfied.

> <CHARMm Energy>
65.51431

> <Potential Energy>
65.51431

> <RMS Gradient>
0.00958

> <Bond Energy>
3.50916

> <Angle Energy>
12.19193

> <STRBend>
0.11036

> <Dihedral Energy>
4.40865

> <OOPLane>
0.0623

> <Van der Waals Energy>
31.2818

> <Electrostatic Energy>
13.9501

> <Hydrogen Bond Energy>
0

> <Solvation Free Energy>
0

> <HasGasteigerCharges>
true

> <REMARK99>
REMARK  99  MacroMolecule created from Mol2 file
REMARK  99  CHEMBL1813003
REMARK  99  PROTEIN
REMARK  99  GASTEIGER
REMARK  99
REMARK  99

$$$$
CHEMBL1935619
  SciTegic05292516403D

 74 76  0  0  0  0            999 V2000
    6.1775  -21.1498   -0.1077 N   0  0
    7.3684  -21.8138    0.1987 C   0  0
    8.6782  -21.1672   -0.2215 C   0  0
    7.3401  -22.8859    0.8032 O   0  0
    9.8935  -21.9748    0.2230 C   0  0
    1.2018  -19.8907   -0.8232 C   0  0
    1.1755  -20.9548    0.0738 C   0  0
    2.3943  -21.5673    0.4202 C   0  0
    2.4111  -19.4536   -1.3734 C   0  0
    3.6213  -20.0660   -1.0256 C   0  0
    3.6292  -21.1298   -0.1168 C   0  0
    4.9182  -21.8561    0.2134 C   0  0
    6.1017  -19.8155   -0.7508 C   0  0  1  0  0  0
    4.9041  -19.6423   -1.6813 C   0  0
    6.1829  -18.6623    0.2639 C   0  0
    6.2603  -19.0601    1.5563 O   0  0
    6.2758  -17.4842   -0.0568 O   0  0
    0.0418  -21.4839    0.6458 O   0  0
   -1.2104  -20.8277    0.3763 C   0  0
   -2.3209  -21.5358    1.1593 C   0  0
   -3.6108  -20.7885    1.1747 C   0  0
   -3.9257  -19.6125    1.8135 C   0  0
   -5.2340  -19.3361    1.5615 O   0  0
   -5.7087  -20.3854    0.7903 C   0  0
   -4.7398  -21.2618    0.5337 N   0  0
   -3.1938  -18.6548    2.6598 C   0  0
   -7.0647  -20.4352    0.3609 C   0  0
   -7.5385  -21.4516   -0.3771 C   0  0
   -8.9568  -21.5464   -0.8608 C   0  0
   -9.6610  -22.7725   -0.2708 C   0  0
  -11.0737  -23.0012   -0.8408 C   0  0
  -11.6382  -24.3228   -0.3132 C   0  0
  -12.0335  -21.8597   -0.5020 C   0  0
   11.0757  -21.3172   -0.2473 O   0  0
   12.2554  -22.0144    0.1491 C   0  0
   13.4581  -21.2621   -0.3846 C   0  0
    8.6955  -21.0733   -1.3133 H   0  0
    8.7419  -20.1577    0.1986 H   0  0
    9.9230  -22.0450    1.3168 H   0  0
    9.8520  -22.9881   -0.1936 H   0  0
    0.2985  -19.3819   -1.1371 H   0  0
    2.3765  -22.4114    1.1085 H   0  0
    2.3918  -18.6335   -2.0899 H   0  0
    4.9387  -22.0819    1.2869 H   0  0
    4.9327  -22.8100   -0.3285 H   0  0
    7.0031  -19.6936   -1.3606 H   0  0
    5.0415  -20.2662   -2.5738 H   0  0
    4.8322  -18.6012   -2.0186 H   0  0
    5.9908  -19.9991    1.6374 H   0  0
   -1.1412  -19.7793    0.6907 H   0  0
   -1.4359  -20.8735   -0.6962 H   0  0
   -2.4721  -22.5385    0.7407 H   0  0
   -1.9904  -21.6994    2.1932 H   0  0
   -3.8317  -18.2807    3.4666 H   0  0
   -2.8570  -17.8016    2.0633 H   0  0
   -2.3157  -19.1227    3.1151 H   0  0
   -7.7027  -19.6114    0.6583 H   0  0
   -6.8702  -22.2631   -0.6660 H   0  0
   -9.5049  -20.6338   -0.6016 H   0  0
   -8.9454  -21.6142   -1.9550 H   0  0
   -9.0523  -23.6643   -0.4727 H   0  0
   -9.7144  -22.6741    0.8216 H   0  0
  -11.0041  -23.0787   -1.9332 H   0  0
  -12.6277  -24.5214   -0.7386 H   0  0
  -11.7352  -24.3063    0.7778 H   0  0
  -10.9864  -25.1603   -0.5835 H   0  0
  -13.0448  -22.0842   -0.8584 H   0  0
  -11.7245  -20.9242   -0.9779 H   0  0
  -12.0860  -21.6927    0.5791 H   0  0
   12.3041  -22.0673    1.2422 H   0  0
   12.2398  -23.0304   -0.2603 H   0  0
   14.3884  -21.7633   -0.1033 H   0  0
   13.4763  -20.2385    0.0041 H   0  0
   13.4128  -21.1875   -1.4762 H   0  0
  1  2  1  0
  1 13  1  0
  2  3  1  0
  2  4  2  0
  3  5  1  0
  3 37  1  0
  3 38  1  0
  5 34  1  0
  5 39  1  0
  5 40  1  0
  6  7  2  0
  6 41  1  0
  7  8  1  0
  7 18  1  0
  8 11  2  0
  8 42  1  0
  9  6  1  0
  9 43  1  0
 10  9  2  0
 10 11  1  0
 10 14  1  0
 11 12  1  0
 12  1  1  0
 12 44  1  0
 12 45  1  0
 13 14  1  0
 13 15  1  0
 13 46  1  0
 14 47  1  0
 14 48  1  0
 15 16  1  0
 15 17  2  0
 16 49  1  0
 18 19  1  0
 19 20  1  0
 19 50  1  0
 19 51  1  0
 20 21  1  0
 20 52  1  0
 20 53  1  0
 21 22  2  0
 22 23  1  0
 22 26  1  0
 23 24  1  0
 24 25  2  0
 24 27  1  0
 25 21  1  0
 26 54  1  0
 26 55  1  0
 26 56  1  0
 27 28  2  0
 27 57  1  0
 28 29  1  0
 28 58  1  0
 29 30  1  0
 29 59  1  0
 29 60  1  0
 30 31  1  0
 30 61  1  0
 30 62  1  0
 31 32  1  0
 31 33  1  0
 31 63  1  0
 32 64  1  0
 32 65  1  0
 32 66  1  0
 33 67  1  0
 33 68  1  0
 33 69  1  0
 34 35  1  0
 35 36  1  0
 35 70  1  0
 35 71  1  0
 36 72  1  0
 36 73  1  0
 36 74  1  0
M  END
> <Name>
CHEMBL1935619

> <Clean Energy>
62.153198

> <chembl_id>
CHEMBL1935619

> <chembl_pref_name>
None

> <efficacy>
0.905263158

> <Forcefield>
MMFF

> <ForcefieldBase>
MMFF

> <ForcefieldFFML>
<?xml version="1.0" encoding="UTF-8"?>
<!DOCTYPE ffml SYSTEM "Ffml.dtd">
<ffml version="1.0">
<forcefield name="MMFF" derivedFrom="MMFF" base="MMFF">
<atomTypes>
<atomType
name="N100"
element="N"
mass="14.007"
annotation=""/>
<atomType
name="C101"
element="C"
mass="12.011"
annotation=""/>
<atomType
name="O102"
element="O"
mass="16"
annotation=""/>
<atomType
name="H103"
element="H"
mass="1.008"
annotation=""/>
</atomTypes>
<parameters>
</parameters>
</forcefield>
</ffml>

> <Initial Potential Energy>
123.37406

> <Initial RMS Gradient>
20.2567

> <Minimization Criteria>
CONJUG> Minimization exiting with gradient tolerance ( 0.0100000) satisfied.

> <CHARMm Energy>
31.23888

> <Potential Energy>
31.23888

> <RMS Gradient>
0.0094

> <Bond Energy>
7.3932

> <Angle Energy>
19.14062

> <STRBend>
0.64742

> <Dihedral Energy>
-10.23954

> <OOPLane>
0.29126

> <Van der Waals Energy>
51.49585

> <Electrostatic Energy>
-37.48992

> <Hydrogen Bond Energy>
0

> <Solvation Free Energy>
0

> <HasGasteigerCharges>
true

> <REMARK99>
REMARK  99  MacroMolecule created from Mol2 file
REMARK  99  CHEMBL1935619
REMARK  99  PROTEIN
REMARK  99  GASTEIGER
REMARK  99
REMARK  99

$$$$
CHEMBL518507
  SciTegic05292516403D

 51 53  0  0  0  0            999 V2000
   20.3401  -16.3851    0.4347 C   0  0
   20.0669  -17.5638    1.0817 C   0  0
   21.0037  -18.5501    0.9125 C   0  0
   22.1340  -18.3999    0.2083 N   0  0
   22.3184  -17.1947   -0.3424 C   0  0
   21.4660  -16.1646   -0.2623 N   0  0
   23.8268  -16.9561   -1.2414 S   0  0
   24.3816  -15.4457   -0.3909 C   0  0
   25.8210  -15.1073   -0.7059 C   0  0
   26.3675  -15.7320   -1.7765 O   0  0
   26.4663  -14.2858   -0.0637 O   0  0
   19.4949  -15.3074    0.5060 O   0  0
   18.1652  -15.6324    0.0795 C   0  0
   17.4037  -14.3320   -0.1813 C   0  0
   15.9756  -14.5949   -0.5902 C   0  0
   14.9485  -14.5795    0.3609 C   0  0
   13.6371  -14.8629   -0.0202 C   0  0
   13.3453  -15.1622   -1.3495 C   0  0
   14.3602  -15.1724   -2.3046 C   0  0
   15.6706  -14.8939   -1.9265 C   0  0
   20.7566  -19.7399    1.5623 O   0  0
   21.5082  -20.8438    1.0409 C   0  0
   20.9229  -22.1399    1.6073 C   0  0
   19.5497  -22.4458    1.0473 C   0  0
   18.4080  -21.8628    1.6168 C   0  0
   17.1442  -22.1286    1.0938 C   0  0
   17.0142  -22.9722   -0.0080 C   0  0
   18.1409  -23.5545   -0.5854 C   0  0
   19.4055  -23.2865   -0.0641 C   0  0
   19.1850  -17.7216    1.6838 H   0  0
   23.7570  -14.6013   -0.6955 H   0  0
   24.3085  -15.5979    0.6907 H   0  0
   25.7250  -16.3693   -2.1599 H   0  0
   18.1920  -16.2391   -0.8362 H   0  0
   17.6550  -16.2007    0.8669 H   0  0
   17.4324  -13.6969    0.7136 H   0  0
   17.9148  -13.7478   -0.9580 H   0  0
   15.1505  -14.3311    1.4011 H   0  0
   12.8376  -14.8360    0.7166 H   0  0
   12.3209  -15.3705   -1.6457 H   0  0
   14.1124  -15.3819   -3.3436 H   0  0
   16.4590  -14.9052   -2.6773 H   0  0
   21.4684  -20.8653   -0.0560 H   0  0
   22.5503  -20.7498    1.3685 H   0  0
   21.5979  -22.9747    1.3834 H   0  0
   20.8518  -22.0777    2.7005 H   0  0
   18.5164  -21.1814    2.4588 H   0  0
   16.2538  -21.6996    1.5498 H   0  0
   16.0267  -23.1938   -0.4071 H   0  0
   18.0254  -24.2328   -1.4291 H   0  0
   20.2816  -23.7314   -0.5298 H   0  0
  1  2  2  0
  1 12  1  0
  2  3  1  0
  2 30  1  0
  3  4  2  0
  3 21  1  0
  4  5  1  0
  5  6  2  0
  5  7  1  0
  6  1  1  0
  7  8  1  0
  8  9  1  0
  8 31  1  0
  8 32  1  0
  9 10  1  0
  9 11  2  0
 10 33  1  0
 12 13  1  0
 13 14  1  0
 13 34  1  0
 13 35  1  0
 14 15  1  0
 14 36  1  0
 14 37  1  0
 15 16  2  0
 16 17  1  0
 16 38  1  0
 17 18  2  0
 17 39  1  0
 18 19  1  0
 18 40  1  0
 19 20  2  0
 19 41  1  0
 20 15  1  0
 20 42  1  0
 21 22  1  0
 22 23  1  0
 22 43  1  0
 22 44  1  0
 23 24  1  0
 23 45  1  0
 23 46  1  0
 24 25  2  0
 25 26  1  0
 25 47  1  0
 26 27  2  0
 26 48  1  0
 27 28  1  0
 27 49  1  0
 28 29  2  0
 28 50  1  0
 29 24  1  0
 29 51  1  0
M  END
> <Name>
CHEMBL518507

> <Clean Energy>
6.7959

> <chembl_id>
CHEMBL518507

> <chembl_pref_name>
None

> <efficacy>
1.054131054

> <Forcefield>
MMFF

> <ForcefieldBase>
MMFF

> <ForcefieldFFML>
<?xml version="1.0" encoding="UTF-8"?>
<!DOCTYPE ffml SYSTEM "Ffml.dtd">
<ffml version="1.0">
<forcefield name="MMFF" derivedFrom="MMFF" base="MMFF">
<atomTypes>
<atomType
name="C100"
element="C"
mass="12.011"
annotation=""/>
<atomType
name="N101"
element="N"
mass="14.007"
annotation=""/>
<atomType
name="S102"
element="S"
mass="32.066"
annotation=""/>
<atomType
name="O103"
element="O"
mass="16"
annotation=""/>
<atomType
name="H104"
element="H"
mass="1.008"
annotation=""/>
</atomTypes>
<parameters>
</parameters>
</forcefield>
</ffml>

> <Initial Potential Energy>
65.60582

> <Initial RMS Gradient>
31.73168

> <Minimization Criteria>
STEEPD> Minimization exiting with gradient tolerance ( 3.0000000) satisfied.

> <CHARMm Energy>
-46.47838

> <Potential Energy>
-46.47838

> <RMS Gradient>
0.08514

> <Bond Energy>
3.66199

> <Angle Energy>
9.7845

> <STRBend>
0.23575

> <Dihedral Energy>
4.18842

> <OOPLane>
0.07363

> <Van der Waals Energy>
58.7517

> <Electrostatic Energy>
-123.17437

> <Hydrogen Bond Energy>
0

> <Solvation Free Energy>
0

> <HasGasteigerCharges>
true

> <REMARK99>
REMARK  99  MacroMolecule created from Mol2 file
REMARK  99  CHEMBL518507
REMARK  99  PROTEIN
REMARK  99  GASTEIGER
REMARK  99
REMARK  99

$$$$
CHEMBL246270
  SciTegic05292516403D

 62 65  0  0  0  0            999 V2000
   -5.0778   -1.2464    0.1354 O   0  0
   -3.7494   -1.1945   -0.1682 C   0  0
   -3.4846    0.0475   -0.7064 C   0  0
   -4.6572    0.7770   -0.7578 N   0  0
   -5.5776   -0.0319   -0.2620 C   0  0
   -7.0125    0.1798   -0.0949 C   0  0
   -7.5982    1.3744   -0.5418 C   0  0
   -8.9704    1.5973   -0.4022 C   0  0
   -9.7754    0.6260    0.1876 C   0  0
   -9.2116   -0.5656    0.6382 C   0  0
   -7.8389   -0.7869    0.4981 C   0  0
   -2.9652   -2.4073    0.1179 C   0  0
   -2.2092    0.5994   -1.2393 C   0  0
   -1.1753    0.9283   -0.1627 C   0  0
    0.0213    1.3515   -0.8285 O   0  0
    1.1279    1.6080   -0.0659 C   0  0
    1.1876    1.5888    1.3260 C   0  0
    2.3877    1.8825    1.9821 C   0  0
    3.5341    2.1952    1.2517 C   0  0
    3.4975    2.2118   -0.1490 C   0  0
    2.2834    1.9230   -0.7947 C   0  0
    4.7432    2.5627   -0.9417 C   0  0
    5.8514    1.6178   -0.6833 N   0  0
    7.1410    2.1887   -1.1382 C   0  0
    5.5909    0.3269   -1.3901 C   0  0
    6.3463   -0.7831   -0.6655 C   0  0
    6.7472   -1.8152   -1.1820 O   0  0
    6.5637   -0.4769    0.6437 O   0  0
    7.6298    3.2852   -0.2176 C   0  0
    7.6527    4.6212   -0.6447 C   0  0
    8.0720    5.6327    0.2199 C   0  0
    8.4763    5.3193    1.5159 C   0  0
    8.4737    3.9945    1.9472 C   0  0
    8.0537    2.9812    1.0854 C   0  0
   -6.9801    2.1409   -1.0069 H   0  0
   -9.4065    2.5286   -0.7541 H   0  0
  -10.8423    0.7988    0.2956 H   0  0
   -9.8371   -1.3249    1.0993 H   0  0
   -7.4176   -1.7238    0.8567 H   0  0
   -2.8103   -2.5149    1.1956 H   0  0
   -1.9846   -2.3664   -0.3657 H   0  0
   -3.4840   -3.2991   -0.2470 H   0  0
   -1.7775   -0.1152   -1.9520 H   0  0
   -2.4134    1.5031   -1.8277 H   0  0
   -1.5501    1.7317    0.4829 H   0  0
   -0.9698    0.0367    0.4421 H   0  0
    0.3192    1.3601    1.9336 H   0  0
    2.4232    1.8752    3.0688 H   0  0
    4.4576    2.4358    1.7775 H   0  0
    2.2239    1.9424   -1.8810 H   0  0
    4.5208    2.6155   -2.0158 H   0  0
    5.0052    3.5823   -0.6356 H   0  0
    7.9217    1.4164   -1.1464 H   0  0
    7.0655    2.5524   -2.1717 H   0  0
    4.5355    0.0388   -1.3473 H   0  0
    5.9045    0.3714   -2.4387 H   0  0
    6.1035    0.3896    0.7841 H   0  0
    7.3433    4.8856   -1.6531 H   0  0
    8.0943    6.6663   -0.1179 H   0  0
    8.8070    6.1077    2.1870 H   0  0
    8.8110    3.7512    2.9521 H   0  0
    8.0690    1.9505    1.4337 H   0  0
  1  2  1  0
  2  3  2  0
  2 12  1  0
  3  4  1  0
  3 13  1  0
  4  5  2  0
  5  1  1  0
  5  6  1  0
  6  7  2  0
  7  8  1  0
  7 35  1  0
  8  9  2  0
  8 36  1  0
  9 10  1  0
  9 37  1  0
 10 11  2  0
 10 38  1  0
 11  6  1  0
 11 39  1  0
 12 40  1  0
 12 41  1  0
 12 42  1  0
 13 14  1  0
 13 43  1  0
 13 44  1  0
 14 15  1  0
 14 45  1  0
 14 46  1  0
 15 16  1  0
 16 17  2  0
 17 18  1  0
 17 47  1  0
 18 19  2  0
 18 48  1  0
 19 20  1  0
 19 49  1  0
 20 21  2  0
 20 22  1  0
 21 16  1  0
 21 50  1  0
 22 23  1  0
 22 51  1  0
 22 52  1  0
 23 24  1  0
 23 25  1  0
 24 29  1  0
 24 53  1  0
 24 54  1  0
 25 26  1  0
 25 55  1  0
 25 56  1  0
 26 27  2  0
 26 28  1  0
 28 57  1  0
 29 30  2  0
 30 31  1  0
 30 58  1  0
 31 32  2  0
 31 59  1  0
 32 33  1  0
 32 60  1  0
 33 34  2  0
 33 61  1  0
 34 29  1  0
 34 62  1  0
M  END
> <Name>
CHEMBL246270

> <Clean Energy>
37.427601

> <chembl_id>
CHEMBL246270

> <chembl_pref_name>
None

> <efficacy>
0.93

> <Forcefield>
MMFF

> <ForcefieldBase>
MMFF

> <ForcefieldFFML>
<?xml version="1.0" encoding="UTF-8"?>
<!DOCTYPE ffml SYSTEM "Ffml.dtd">
<ffml version="1.0">
<forcefield name="MMFF" derivedFrom="MMFF" base="MMFF">
<atomTypes>
<atomType
name="O100"
element="O"
mass="16"
annotation=""/>
<atomType
name="C101"
element="C"
mass="12.011"
annotation=""/>
<atomType
name="N102"
element="N"
mass="14.007"
annotation=""/>
<atomType
name="H103"
element="H"
mass="1.008"
annotation=""/>
</atomTypes>
<parameters>
</parameters>
</forcefield>
</ffml>

> <Initial Potential Energy>
235.57807

> <Initial RMS Gradient>
32.22169

> <Minimization Criteria>
CONJUG> Minimization exiting with gradient tolerance ( 0.0100000) satisfied.

> <CHARMm Energy>
84.17345

> <Potential Energy>
84.17345

> <RMS Gradient>
0.00913

> <Bond Energy>
7.1649

> <Angle Energy>
11.58659

> <STRBend>
0.61586

> <Dihedral Energy>
-1.17216

> <OOPLane>
0.04638

> <Van der Waals Energy>
64.59272

> <Electrostatic Energy>
1.33914

> <Hydrogen Bond Energy>
0

> <Solvation Free Energy>
0

> <HasGasteigerCharges>
true

> <REMARK99>
REMARK  99  MacroMolecule created from Mol2 file
REMARK  99  CHEMBL246270
REMARK  99  PROTEIN
REMARK  99  GASTEIGER
REMARK  99
REMARK  99

$$$$
CHEMBL501335
  SciTegic05292516403D

 48 49  0  0  0  0            999 V2000
    9.7625   -5.7459    0.1242 C   0  0
    9.9442   -7.0333   -0.3915 C   0  0
   11.2320   -7.5703   -0.5345 C   0  0
   12.3334   -6.7971   -0.1553 C   0  0
   12.1439   -5.5193    0.3713 C   0  0
   10.8651   -4.9802    0.5007 C   0  0
   13.3350   -4.7221    0.7135 C   0  0
   14.3109   -5.3218    1.7008 C   0  0
   13.5098   -3.5873    0.1095 N   0  0
   14.7487   -3.0320    0.4533 O   0  0
   15.2181   -2.2705   -0.6569 C   0  0
   16.6987   -2.0241   -0.4975 C   0  0
   17.5783   -3.1122   -0.3673 C   0  0
   18.9511   -2.9123   -0.2434 C   0  0
   19.4626   -1.6167   -0.2533 C   0  0
   18.6028   -0.5280   -0.3877 C   0  0
   17.2258   -0.7248   -0.5108 C   0  0
   11.4431   -8.9468   -1.1239 C   0  0
   12.2653   -9.8594   -0.1891 C   0  0  1  0  0  0
   11.6093  -11.2473   -0.2375 C   0  0
   13.6385   -9.7523   -0.5687 O   0  0
   14.5052  -10.5645    0.2245 C   0  0
   15.9360  -10.2169   -0.1387 C   0  0
   10.4569  -11.3046    0.4832 O   0  0
   12.0421  -12.2178   -0.8384 O   0  0
   19.2492    1.0692   -0.4080 Cl  0  0
    8.7598   -5.3337    0.2147 H   0  0
    9.0684   -7.6014   -0.7005 H   0  0
   13.3440   -7.1744   -0.3030 H   0  0
   10.7287   -3.9705    0.8792 H   0  0
   14.5346   -4.5930    2.4855 H   0  0
   15.2353   -5.5912    1.1818 H   0  0
   13.8993   -6.2155    2.1781 H   0  0
   15.0501   -2.8081   -1.5988 H   0  0
   14.6634   -1.3260   -0.6905 H   0  0
   17.1856   -4.1280   -0.3619 H   0  0
   19.6307   -3.7553   -0.1440 H   0  0
   20.5329   -1.4639   -0.1585 H   0  0
   16.5734    0.1397   -0.6174 H   0  0
   10.4603   -9.3837   -1.3412 H   0  0
   11.9478   -8.8273   -2.0916 H   0  0
   12.1947   -9.5214    0.8540 H   0  0
   14.3361  -10.3650    1.2884 H   0  0
   14.3274  -11.6242    0.0221 H   0  0
   16.6428  -10.8130    0.4451 H   0  0
   16.1329   -9.1552    0.0443 H   0  0
   16.1177  -10.3957   -1.2037 H   0  0
   10.2270  -10.4650    0.9289 H   0  0
  1  2  2  0
  1 27  1  0
  2  3  1  0
  2 28  1  0
  3  4  2  0
  3 18  1  0
  4  5  1  0
  4 29  1  0
  5  6  2  0
  5  7  1  0
  6  1  1  0
  6 30  1  0
  7  8  1  0
  7  9  2  0
  8 31  1  0
  8 32  1  0
  8 33  1  0
  9 10  1  0
 10 11  1  0
 11 12  1  0
 11 34  1  0
 11 35  1  0
 12 13  2  0
 13 14  1  0
 13 36  1  0
 14 15  2  0
 14 37  1  0
 15 16  1  0
 15 38  1  0
 16 17  2  0
 16 26  1  0
 17 12  1  0
 17 39  1  0
 18 19  1  0
 18 40  1  0
 18 41  1  0
 19 20  1  0
 19 21  1  0
 19 42  1  0
 20 24  1  0
 20 25  2  0
 21 22  1  0
 22 23  1  0
 22 43  1  0
 22 44  1  0
 23 45  1  0
 23 46  1  0
 23 47  1  0
 24 48  1  0
M  END
> <Name>
CHEMBL501335

> <Clean Energy>
30.526899

> <chembl_id>
CHEMBL501335

> <chembl_pref_name>
None

> <efficacy>
1.36

> <Forcefield>
MMFF

> <ForcefieldBase>
MMFF

> <ForcefieldFFML>
<?xml version="1.0" encoding="UTF-8"?>
<!DOCTYPE ffml SYSTEM "Ffml.dtd">
<ffml version="1.0">
<forcefield name="MMFF" derivedFrom="MMFF" base="MMFF">
<atomTypes>
<atomType
name="C100"
element="C"
mass="12.011"
annotation=""/>
<atomType
name="N101"
element="N"
mass="14.007"
annotation=""/>
<atomType
name="O102"
element="O"
mass="16"
annotation=""/>
<atomType
name="Cl103"
element="Cl"
mass="35.453"
annotation=""/>
<atomType
name="H104"
element="H"
mass="1.008"
annotation=""/>
</atomTypes>
<parameters>
</parameters>
</forcefield>
</ffml>

> <Initial Potential Energy>
195.8135

> <Initial RMS Gradient>
26.41187

> <Minimization Criteria>
CONJUG> Minimization exiting with gradient tolerance ( 0.0100000) satisfied.

> <CHARMm Energy>
105.38688

> <Potential Energy>
105.38688

> <RMS Gradient>
0.00949

> <Bond Energy>
4.3236

> <Angle Energy>
6.74884

> <STRBend>
0.72095

> <Dihedral Energy>
6.53617

> <OOPLane>
0.09928

> <Van der Waals Energy>
46.32651

> <Electrostatic Energy>
40.63153

> <Hydrogen Bond Energy>
0

> <Solvation Free Energy>
0

> <HasGasteigerCharges>
true

> <REMARK99>
REMARK  99  MacroMolecule created from Mol2 file
REMARK  99  CHEMBL501335
REMARK  99  PROTEIN
REMARK  99  GASTEIGER
REMARK  99
REMARK  99

$$$$
CHEMBL401015
  SciTegic05292516403D

 62 64  0  0  0  0            999 V2000
   -6.4459  -10.6136   -0.7383 C   0  0
   -6.9361  -11.3865    0.3114 C   0  0
   -6.3010  -11.3676    1.5507 C   0  0
   -5.1633  -10.5823    1.7378 C   0  0
   -4.6458   -9.8086    0.6852 C   0  0
   -5.3081   -9.8286   -0.5531 C   0  0
   -3.3867   -8.9839    0.9016 C   0  0  1  0  0  0
   -2.3032   -9.3699   -0.1097 C   0  0
   -3.7469   -7.5826    0.7359 O   0  0
   -3.5956   -6.6165    1.6776 C   0  0
   -4.2195   -5.4171    1.4607 N   0  0
   -2.5598   -6.7738    2.9797 S   0  0
   -5.1235   -4.9949    0.4679 C   0  0
   -0.9307   -8.8514    0.3188 C   0  0
    0.1858   -9.6165   -0.3401 C   0  0
    0.3952  -10.9614   -0.0042 C   0  0
    1.4490  -11.6739   -0.5639 C   0  0
    2.3314  -11.0414   -1.4464 C   0  0
    2.1067   -9.7068   -1.8080 C   0  0
    1.0366   -8.9991   -1.2604 C   0  0
    3.5582  -11.7749   -1.9230 C   0  0
    4.5441  -11.9878   -0.7714 C   0  0  1  0  0  0
    5.5993  -12.9887   -1.2215 C   0  0
    6.8362  -12.4276   -1.2617 O   0  0
    5.3983  -14.1567   -1.5199 O   0  0
    5.2651  -10.7624   -0.4778 O   0  0
    4.8341  -10.1658    0.7492 C   0  0
    5.5656   -8.8485    0.9131 C   0  0
   -5.4140   -3.6234    0.4247 C   0  0
   -6.2907   -3.1034   -0.5310 C   0  0
   -6.8985   -3.9543   -1.4484 C   0  0
   -6.6302   -5.3205   -1.4031 C   0  0
   -5.7470   -5.8389   -0.4487 C   0  0
   -6.9587  -10.6172   -1.6974 H   0  0
   -7.8259  -11.9947    0.1678 H   0  0
   -6.7049  -11.9579    2.3718 H   0  0
   -4.6782  -10.5821    2.7119 H   0  0
   -4.9401   -9.2292   -1.3829 H   0  0
   -3.0281   -9.1938    1.9135 H   0  0
   -2.2832  -10.4629   -0.2056 H   0  0
   -2.5321   -8.9702   -1.1061 H   0  0
   -3.9447   -4.7109    2.1345 H   0  0
   -0.8508   -7.7807    0.0965 H   0  0
   -0.7916   -8.9557    1.4018 H   0  0
   -0.2559  -11.4610    0.7104 H   0  0
    1.5948  -12.7138   -0.2800 H   0  0
    2.7815   -9.1978   -2.4933 H   0  0
    0.8881   -7.9585   -1.5387 H   0  0
    3.2397  -12.7320   -2.3550 H   0  0
    4.0380  -11.2110   -2.7332 H   0  0
    4.0891  -12.3964    0.1391 H   0  0
    6.7313  -11.4844   -0.9829 H   0  0
    3.7555   -9.9892    0.7381 H   0  0
    5.0803  -10.8341    1.5814 H   0  0
    5.2829   -8.3581    1.8487 H   0  0
    5.3377   -8.1765    0.0790 H   0  0
    6.6494   -9.0054    0.9087 H   0  0
   -4.9452   -2.9376    1.1259 H   0  0
   -6.4918   -2.0360   -0.5603 H   0  0
   -7.5800   -3.5575   -2.1956 H   0  0
   -7.1136   -5.9920   -2.1085 H   0  0
   -5.5994   -6.9100   -0.4342 H   0  0
  1  2  2  0
  1 34  1  0
  2  3  1  0
  2 35  1  0
  3  4  2  0
  3 36  1  0
  4  5  1  0
  4 37  1  0
  5  6  2  0
  5  7  1  0
  6  1  1  0
  6 38  1  0
  7  8  1  0
  7  9  1  0
  7 39  1  0
  8 14  1  0
  8 40  1  0
  8 41  1  0
  9 10  1  0
 10 11  1  0
 10 12  2  0
 11 13  1  0
 11 42  1  0
 13 29  2  0
 14 15  1  0
 14 43  1  0
 14 44  1  0
 15 16  2  0
 16 17  1  0
 16 45  1  0
 17 18  2  0
 17 46  1  0
 18 19  1  0
 18 21  1  0
 19 20  2  0
 19 47  1  0
 20 15  1  0
 20 48  1  0
 21 22  1  0
 21 49  1  0
 21 50  1  0
 22 23  1  0
 22 26  1  0
 22 51  1  0
 23 24  1  0
 23 25  2  0
 24 52  1  0
 26 27  1  0
 27 28  1  0
 27 53  1  0
 27 54  1  0
 28 55  1  0
 28 56  1  0
 28 57  1  0
 29 30  1  0
 29 58  1  0
 30 31  2  0
 30 59  1  0
 31 32  1  0
 31 60  1  0
 32 33  2  0
 32 61  1  0
 33 13  1  0
 33 62  1  0
M  END
> <Name>
CHEMBL401015

> <Clean Energy>
32.6334

> <chembl_id>
CHEMBL401015

> <chembl_pref_name>
None

> <efficacy>
2.04

> <Forcefield>
MMFF

> <ForcefieldBase>
MMFF

> <ForcefieldFFML>
<?xml version="1.0" encoding="UTF-8"?>
<!DOCTYPE ffml SYSTEM "Ffml.dtd">
<ffml version="1.0">
<forcefield name="MMFF" derivedFrom="MMFF" base="MMFF">
<atomTypes>
<atomType
name="C100"
element="C"
mass="12.011"
annotation=""/>
<atomType
name="O101"
element="O"
mass="16"
annotation=""/>
<atomType
name="N102"
element="N"
mass="14.007"
annotation=""/>
<atomType
name="S103"
element="S"
mass="32.066"
annotation=""/>
<atomType
name="H104"
element="H"
mass="1.008"
annotation=""/>
</atomTypes>
<parameters>
</parameters>
</forcefield>
</ffml>

> <Initial Potential Energy>
188.64961

> <Initial RMS Gradient>
29.49019

> <Minimization Criteria>
STEEPD> Minimization exiting with gradient tolerance ( 3.0000000) satisfied.

> <CHARMm Energy>
49.63387

> <Potential Energy>
49.63387

> <RMS Gradient>
0.08449

> <Bond Energy>
6.3345

> <Angle Energy>
16.80058

> <STRBend>
0.57456

> <Dihedral Energy>
4.38381

> <OOPLane>
0.35657

> <Van der Waals Energy>
70.64957

> <Electrostatic Energy>
-49.46571

> <Hydrogen Bond Energy>
0

> <Solvation Free Energy>
0

> <HasGasteigerCharges>
true

> <REMARK99>
REMARK  99  MacroMolecule created from Mol2 file
REMARK  99  CHEMBL401015
REMARK  99  PROTEIN
REMARK  99  GASTEIGER
REMARK  99
REMARK  99

$$$$
CHEMBL1935610
  SciTegic05292516403D

 74 76  0  0  0  0            999 V2000
    7.5632   -3.0370    0.2798 N   0  0
    8.7505   -3.4474    0.8767 C   0  0
   10.0234   -2.8793    0.3631 C   0  0
    8.7505   -4.2318    1.8229 O   0  0
   11.1864   -3.4852    0.6486 C   0  0
   12.5244   -2.9638    0.2114 C   0  0
   13.2307   -3.9555   -0.7133 C   0  0
   14.5910   -3.4350   -1.1509 C   0  0
    2.5789   -2.2074   -0.7422 C   0  0
    2.6210   -2.7641    0.5348 C   0  0
    3.8520   -3.1947    1.0498 C   0  0
    3.7499   -2.0952   -1.4985 C   0  0
    4.9762   -2.5284   -0.9813 C   0  0
    5.0394   -3.0769    0.3041 C   0  0
    6.3384   -3.6372    0.8310 C   0  0
    7.4577   -2.2017   -0.9440 C   0  0  1  0  0  0
    6.2287   -2.4882   -1.8085 C   0  0
    7.5502   -0.6998   -0.6293 C   0  0
    7.6454   -0.4120    0.6905 O   0  0
    7.6400    0.1671   -1.4895 O   0  0
    1.5427   -2.9571    1.3588 O   0  0
    0.2636   -2.5116    0.8816 C   0  0
   -0.7980   -2.7976    1.9496 C   0  0
   -2.1191   -2.1657    1.6650 C   0  0
   -2.4652   -0.8349    1.6697 C   0  0
   -3.7912   -0.7455    1.3784 O   0  0
   -4.2450   -2.0475    1.2383 C   0  0
   -3.2477   -2.9162    1.3907 N   0  0
   -1.7517    0.4305    1.9117 C   0  0
   -5.6121   -2.3276    0.9573 C   0  0
   -6.0729   -3.5835    0.8462 C   0  0
   -7.5058   -3.9277    0.5580 C   0  0
   -7.6376   -4.6869   -0.7662 C   0  0
   -9.0667   -5.1913   -1.0429 C   0  0
   -9.0742   -6.0658   -2.2993 C   0  0
  -10.0695   -4.0480   -1.2054 C   0  0
   10.0187   -1.9568   -0.2004 H   0  0
   11.1987   -4.3990    1.2428 H   0  0
   12.4180   -1.9975   -0.2969 H   0  0
   13.1364   -2.7868    1.1040 H   0  0
   13.3629   -4.9177   -0.2038 H   0  0
   12.6163   -4.1438   -1.6021 H   0  0
   15.0802   -4.1595   -1.8094 H   0  0
   15.2426   -3.2663   -0.2876 H   0  0
   14.4926   -2.4916   -1.6974 H   0  0
    1.6508   -1.8652   -1.1896 H   0  0
    3.8779   -3.6469    2.0402 H   0  0
    3.6921   -1.6776   -2.5020 H   0  0
    6.3704   -3.5189    1.9214 H   0  0
    6.3722   -4.7117    0.6105 H   0  0
    8.3422   -2.4164   -1.5560 H   0  0
    6.3400   -3.4674   -2.2917 H   0  0
    6.1370   -1.7402   -2.6051 H   0  0
    7.3760   -1.1926    1.2226 H   0  0
    0.3093   -1.4340    0.6823 H   0  0
   -0.0017   -3.0424   -0.0412 H   0  0
   -0.9164   -3.8830    2.0564 H   0  0
   -0.4366   -2.4470    2.9249 H   0  0
   -2.3875    1.1407    2.4494 H   0  0
   -1.4534    0.8855    0.9624 H   0  0
   -0.8510    0.2656    2.5108 H   0  0
   -6.2704   -1.4754    0.8366 H   0  0
   -5.3883   -4.4215    0.9773 H   0  0
   -7.8846   -4.5462    1.3803 H   0  0
   -8.1147   -3.0172    0.5345 H   0  0
   -7.3058   -4.0438   -1.5922 H   0  0
   -6.9576   -5.5494   -0.7517 H   0  0
   -9.3896   -5.8141   -0.1991 H   0  0
  -10.0759   -6.4656   -2.4897 H   0  0
   -8.3932   -6.9161   -2.1862 H   0  0
   -8.7627   -5.4965   -3.1818 H   0  0
  -11.0597   -4.4350   -1.4697 H   0  0
   -9.7568   -3.3546   -1.9934 H   0  0
  -10.1826   -3.4813   -0.2765 H   0  0
  1  2  1  0
  1 16  1  0
  2  3  1  0
  2  4  2  0
  3  5  2  0
  3 37  1  0
  5  6  1  0
  5 38  1  0
  6  7  1  0
  6 39  1  0
  6 40  1  0
  7  8  1  0
  7 41  1  0
  7 42  1  0
  8 43  1  0
  8 44  1  0
  8 45  1  0
  9 10  2  0
  9 46  1  0
 10 11  1  0
 10 21  1  0
 11 14  2  0
 11 47  1  0
 12  9  1  0
 12 48  1  0
 13 12  2  0
 13 14  1  0
 13 17  1  0
 14 15  1  0
 15  1  1  0
 15 49  1  0
 15 50  1  0
 16 17  1  0
 16 18  1  0
 16 51  1  0
 17 52  1  0
 17 53  1  0
 18 19  1  0
 18 20  2  0
 19 54  1  0
 21 22  1  0
 22 23  1  0
 22 55  1  0
 22 56  1  0
 23 24  1  0
 23 57  1  0
 23 58  1  0
 24 25  2  0
 25 26  1  0
 25 29  1  0
 26 27  1  0
 27 28  2  0
 27 30  1  0
 28 24  1  0
 29 59  1  0
 29 60  1  0
 29 61  1  0
 30 31  2  0
 30 62  1  0
 31 32  1  0
 31 63  1  0
 32 33  1  0
 32 64  1  0
 32 65  1  0
 33 34  1  0
 33 66  1  0
 33 67  1  0
 34 35  1  0
 34 36  1  0
 34 68  1  0
 35 69  1  0
 35 70  1  0
 35 71  1  0
 36 72  1  0
 36 73  1  0
 36 74  1  0
M  END
> <Name>
CHEMBL1935610

> <Clean Energy>
58.794899

> <chembl_id>
CHEMBL1935610

> <chembl_pref_name>
None

> <efficacy>
1.010526316

> <Forcefield>
MMFF

> <ForcefieldBase>
MMFF

> <ForcefieldFFML>
<?xml version="1.0" encoding="UTF-8"?>
<!DOCTYPE ffml SYSTEM "Ffml.dtd">
<ffml version="1.0">
<forcefield name="MMFF" derivedFrom="MMFF" base="MMFF">
<atomTypes>
<atomType
name="N100"
element="N"
mass="14.007"
annotation=""/>
<atomType
name="C101"
element="C"
mass="12.011"
annotation=""/>
<atomType
name="O102"
element="O"
mass="16"
annotation=""/>
<atomType
name="H103"
element="H"
mass="1.008"
annotation=""/>
</atomTypes>
<parameters>
</parameters>
</forcefield>
</ffml>

> <Initial Potential Energy>
119.97199

> <Initial RMS Gradient>
20.47459

> <Minimization Criteria>
CONJUG> Minimization exiting with gradient tolerance ( 0.0100000) satisfied.

> <CHARMm Energy>
26.65303

> <Potential Energy>
26.65303

> <RMS Gradient>
0.00982

> <Bond Energy>
6.70739

> <Angle Energy>
19.07703

> <STRBend>
0.32362

> <Dihedral Energy>
-16.04195

> <OOPLane>
0.3899

> <Van der Waals Energy>
54.70783

> <Electrostatic Energy>
-38.51079

> <Hydrogen Bond Energy>
0

> <Solvation Free Energy>
0

> <HasGasteigerCharges>
true

> <REMARK99>
REMARK  99  MacroMolecule created from Mol2 file
REMARK  99  CHEMBL1935610
REMARK  99  PROTEIN
REMARK  99  GASTEIGER
REMARK  99
REMARK  99

$$$$
CHEMBL3597411
  SciTegic05292516403D

 73 77  0  0  0  0            999 V2000
    1.8105    2.1291   -2.0198 C   0  0
   -4.1245   -3.7487    1.1131 C   0  0
   -2.8145   -1.7243    1.0207 O   0  0
   -4.0475   -5.2685    1.0261 C   0  0
    2.4868   -0.1959   -1.1629 C   0  0
   -2.7277   -3.1515    1.0176 C   0  0
   -5.3683   -5.7991    0.9790 O   0  0
    2.1317    3.1374    0.1714 O   0  0
    2.4468    3.1959   -1.1446 C   0  0
   -1.9629    0.2055    0.0099 C   0  0
    3.1414    4.0986   -1.5949 O   0  0
   -1.7227   -1.0764    0.4973 C   0  0
    1.9025   -1.2112   -0.4468 N   0  0
    0.5798   -0.8950   -0.1992 C   0  0
    0.3445    0.3720   -0.7392 C   0  0
    1.5662    0.8190   -1.3322 C   0  0
   -0.9420    0.9372   -0.6090 C   0  0
   -0.4378   -1.6283    0.4366 C   0  0
   -5.4807   -7.1166    0.6162 C   0  0
   -6.7706   -7.5303    0.2819 C   0  0
   -7.0050   -8.8424   -0.1289 C   0  0
   -5.9456   -9.7453   -0.2096 C   0  0
   -4.6525   -9.3486    0.1292 C   0  0
   -4.4299   -8.0402    0.5673 C   0  0
   -3.6972  -10.3226    0.0037 O   0  0
   -2.3342   -9.8860    0.0510 C   0  0
   -1.4032  -11.0347   -0.2709 C   0  0
   -0.1967  -10.7794   -0.9386 C   0  0
    0.7176  -11.8045   -1.1912 C   0  0
    0.4462  -13.1067   -0.7688 C   0  0
   -0.7603  -13.3691   -0.1090 C   0  0
   -1.6725  -12.3428    0.1478 C   0  0
    2.5582   -2.4717   -0.0850 C   0  0
    3.9524   -2.2881    0.4771 C   0  0
    5.0124   -3.0553   -0.0343 C   0  0
    6.2984   -2.9303    0.4898 C   0  0
    6.5382   -2.0416    1.5349 C   0  0
    5.4952   -1.2821    2.0609 C   0  0
    4.2067   -1.4086    1.5416 C   0  0
    1.4016  -14.2240   -1.0683 C   0  0
    0.8730    2.5372   -2.4125 H   0  0
    2.4802    1.9576   -2.8715 H   0  0
   -4.7605   -3.3534    0.3110 H   0  0
   -4.6148   -3.4402    2.0443 H   0  0
   -3.4981   -5.5414    0.1158 H   0  0
   -3.5231   -5.6611    1.9056 H   0  0
    3.5216   -0.2616   -1.4790 H   0  0
   -2.2645   -3.5084    0.0883 H   0  0
   -2.1272   -3.4769    1.8755 H   0  0
    1.5678    2.3748    0.4135 H   0  0
   -2.9630    0.6303    0.0815 H   0  0
   -1.1607    1.9246   -1.0077 H   0  0
   -0.2245   -2.6054    0.8516 H   0  0
   -7.6040   -6.8324    0.3379 H   0  0
   -8.0118   -9.1566   -0.3912 H   0  0
   -6.1283  -10.7644   -0.5410 H   0  0
   -3.4391   -7.7461    0.8823 H   0  0
   -2.1817   -9.0841   -0.6824 H   0  0
   -2.0875   -9.5309    1.0589 H   0  0
    0.0465   -9.7697   -1.2649 H   0  0
    1.6441  -11.5615   -1.7074 H   0  0
   -0.9977  -14.3828    0.2111 H   0  0
   -2.5983  -12.5718    0.6736 H   0  0
    1.9504   -2.9920    0.6605 H   0  0
    2.5700   -3.0714   -1.0026 H   0  0
    4.8324   -3.7683   -0.8377 H   0  0
    7.1191   -3.5200    0.0848 H   0  0
    7.5429   -1.9338    1.9388 H   0  0
    5.6948   -0.5827    2.8709 H   0  0
    3.4071   -0.8059    1.9684 H   0  0
    1.1379  -14.6969   -2.0193 H   0  0
    1.3775  -14.9803   -0.2767 H   0  0
    2.4300  -13.8531   -1.1317 H   0  0
  1  9  1  0
  1 41  1  0
  1 42  1  0
  2  4  1  0
  2 43  1  0
  2 44  1  0
  3  6  1  0
  4  7  1  0
  4 45  1  0
  4 46  1  0
  5 16  2  0
  5 47  1  0
  6  2  1  0
  6 48  1  0
  6 49  1  0
  7 19  1  0
  8 50  1  0
  9  8  1  0
  9 11  2  0
 10 12  2  0
 10 51  1  0
 12  3  1  0
 12 18  1  0
 13  5  1  0
 13 33  1  0
 14 13  1  0
 15 14  1  0
 15 17  2  0
 16  1  1  0
 16 15  1  0
 17 10  1  0
 17 52  1  0
 18 14  2  0
 18 53  1  0
 19 20  2  0
 20 21  1  0
 20 54  1  0
 21 22  2  0
 21 55  1  0
 22 23  1  0
 22 56  1  0
 23 24  2  0
 23 25  1  0
 24 19  1  0
 24 57  1  0
 25 26  1  0
 26 27  1  0
 26 58  1  0
 26 59  1  0
 27 28  2  0
 28 29  1  0
 28 60  1  0
 29 30  2  0
 29 61  1  0
 30 31  1  0
 30 40  1  0
 31 32  2  0
 31 62  1  0
 32 27  1  0
 32 63  1  0
 33 34  1  0
 33 64  1  0
 33 65  1  0
 34 35  2  0
 35 36  1  0
 35 66  1  0
 36 37  2  0
 36 67  1  0
 37 38  1  0
 37 68  1  0
 38 39  2  0
 38 69  1  0
 39 34  1  0
 39 70  1  0
 40 71  1  0
 40 72  1  0
 40 73  1  0
M  END
> <Name>
CHEMBL3597411

> <Clean Energy>
27.8957

> <chembl_id>
CHEMBL3597411

> <chembl_pref_name>
None

> <efficacy>
1.303

> <Forcefield>
MMFF

> <ForcefieldBase>
MMFF

> <ForcefieldFFML>
<?xml version="1.0" encoding="UTF-8"?>
<!DOCTYPE ffml SYSTEM "Ffml.dtd">
<ffml version="1.0">
<forcefield name="MMFF" derivedFrom="MMFF" base="MMFF">
<atomTypes>
<atomType
name="C100"
element="C"
mass="12.011"
annotation=""/>
<atomType
name="O101"
element="O"
mass="16"
annotation=""/>
<atomType
name="N102"
element="N"
mass="14.007"
annotation=""/>
<atomType
name="H103"
element="H"
mass="1.008"
annotation=""/>
</atomTypes>
<parameters>
</parameters>
</forcefield>
</ffml>

> <Initial Potential Energy>
236.31818

> <Initial RMS Gradient>
32.89265

> <Minimization Criteria>
CONJUG> Minimization exiting with gradient tolerance ( 0.0100000) satisfied.

> <CHARMm Energy>
93.78814

> <Potential Energy>
93.78814

> <RMS Gradient>
0.00931

> <Bond Energy>
7.57869

> <Angle Energy>
21.24512

> <STRBend>
-0.01862

> <Dihedral Energy>
-1.53026

> <OOPLane>
0.18651

> <Van der Waals Energy>
85.76761

> <Electrostatic Energy>
-19.44089

> <Hydrogen Bond Energy>
0

> <Solvation Free Energy>
0

> <HasGasteigerCharges>
true

> <REMARK99>
REMARK  99  MacroMolecule created from Mol2 file
REMARK  99  CHEMBL3597411
REMARK  99  PROTEIN
REMARK  99  GASTEIGER
REMARK  99
REMARK  99

$$$$
CHEMBL3597424
  SciTegic05292516403D

 57 60  0  0  0  0            999 V2000
   -2.1731    1.2468    0.1058 C   0  0
   -2.3333   -0.1000    0.4327 C   0  0
   -1.2397   -0.9582    0.5464 C   0  0
   -0.8889    1.7723   -0.1080 C   0  0
    0.2412    0.9243    0.0013 C   0  0
    0.0282   -0.4176    0.3200 C   0  0
    1.2542   -1.0324    0.3445 N   0  0
    2.2390   -0.1320    0.0509 C   0  0
    1.6613    1.1082   -0.1547 C   0  0
    2.3689    2.3862   -0.5113 C   0  0
    3.8573    2.3349   -0.2144 C   0  0
    4.1584    2.3271    1.1126 O   0  0
    4.7350    2.2220   -1.0624 O   0  0
   -3.3540    1.9380    0.0270 O   0  0
   -3.2821    3.3113   -0.3357 C   0  0
   -4.6964    3.8899   -0.3280 C   0  0
   -4.6472    5.3746   -0.6527 C   0  0
   -5.9480    5.9660   -0.5236 O   0  0
   -5.9045    7.3165   -0.2641 C   0  0
   -6.9765    7.8490    0.4462 C   0  0
   -6.9603    9.1930    0.8301 C   0  0
   -5.8594    9.9985    0.5270 C   0  0
   -4.7848    9.4702   -0.1819 C   0  0
   -4.8471    8.1518   -0.6374 C   0  0
   -3.7004   10.2950   -0.3620 O   0  0
   -2.4492    9.5923   -0.4666 C   0  0
   -1.2574   10.4628   -0.1279 C   0  0
   -1.3729   11.8523    0.0539 C   0  0
   -0.2478   12.6167    0.3796 C   0  0
    0.9945   11.9968    0.5223 C   0  0
    1.1355   10.6295    0.3294 C   0  0
    0.0155    9.8675    0.0012 C   0  0
    0.2561    8.1666   -0.2367 Cl  0  0
    2.3705   12.9374    0.9433 Cl  0  0
   -3.3362   -0.4892    0.5970 H   0  0
   -1.3782   -2.0061    0.7933 H   0  0
   -0.7328    2.8120   -0.3661 H   0  0
    1.3956   -2.0142    0.5340 H   0  0
    3.2711   -0.4609    0.0068 H   0  0
    2.2426    2.5873   -1.5814 H   0  0
    1.9385    3.2380    0.0271 H   0  0
    3.3530    2.4783    1.6515 H   0  0
   -2.6660    3.8550    0.3911 H   0  0
   -2.8497    3.4128   -1.3384 H   0  0
   -5.3355    3.3595   -1.0440 H   0  0
   -5.1667    3.7288    0.6501 H   0  0
   -3.9364    5.8406    0.0432 H   0  0
   -4.2946    5.5135   -1.6819 H   0  0
   -7.8138    7.2134    0.7220 H   0  0
   -7.7918    9.6059    1.3943 H   0  0
   -5.8325   11.0304    0.8657 H   0  0
   -4.0489    7.7640   -1.2593 H   0  0
   -2.4472    8.7496    0.2371 H   0  0
   -2.3345    9.2401   -1.4989 H   0  0
   -2.3372   12.3527   -0.0505 H   0  0
   -0.3478   13.6929    0.5232 H   0  0
    2.1074   10.1544    0.4364 H   0  0
  1  2  2  0
  1 14  1  0
  2  3  1  0
  2 35  1  0
  3  6  2  0
  3 36  1  0
  4  1  1  0
  4 37  1  0
  5  4  2  0
  5  6  1  0
  6  7  1  0
  7  8  1  0
  7 38  1  0
  8  9  2  0
  8 39  1  0
  9  5  1  0
  9 10  1  0
 10 11  1  0
 10 40  1  0
 10 41  1  0
 11 12  1  0
 11 13  2  0
 12 42  1  0
 14 15  1  0
 15 16  1  0
 15 43  1  0
 15 44  1  0
 16 17  1  0
 16 45  1  0
 16 46  1  0
 17 18  1  0
 17 47  1  0
 17 48  1  0
 18 19  1  0
 19 20  2  0
 20 21  1  0
 20 49  1  0
 21 22  2  0
 21 50  1  0
 22 23  1  0
 22 51  1  0
 23 24  2  0
 23 25  1  0
 24 19  1  0
 24 52  1  0
 25 26  1  0
 26 27  1  0
 26 53  1  0
 26 54  1  0
 27 28  2  0
 28 29  1  0
 28 55  1  0
 29 30  2  0
 29 56  1  0
 30 31  1  0
 30 34  1  0
 31 32  2  0
 31 57  1  0
 32 27  1  0
 32 33  1  0
M  END
> <Name>
CHEMBL3597424

> <Clean Energy>
21.1752

> <chembl_id>
CHEMBL3597424

> <chembl_pref_name>
None

> <efficacy>
1.016

> <Forcefield>
MMFF

> <ForcefieldBase>
MMFF

> <ForcefieldFFML>
<?xml version="1.0" encoding="UTF-8"?>
<!DOCTYPE ffml SYSTEM "Ffml.dtd">
<ffml version="1.0">
<forcefield name="MMFF" derivedFrom="MMFF" base="MMFF">
<atomTypes>
<atomType
name="C100"
element="C"
mass="12.011"
annotation=""/>
<atomType
name="N101"
element="N"
mass="14.007"
annotation=""/>
<atomType
name="O102"
element="O"
mass="16"
annotation=""/>
<atomType
name="Cl103"
element="Cl"
mass="35.453"
annotation=""/>
<atomType
name="H104"
element="H"
mass="1.008"
annotation=""/>
</atomTypes>
<parameters>
</parameters>
</forcefield>
</ffml>

> <Initial Potential Energy>
124.09164

> <Initial RMS Gradient>
29.52893

> <Minimization Criteria>
STEEPD> Minimization exiting with gradient tolerance ( 3.0000000) satisfied.

> <CHARMm Energy>
39.3699

> <Potential Energy>
39.3699

> <RMS Gradient>
0.04739

> <Bond Energy>
5.98569

> <Angle Energy>
18.13992

> <STRBend>
0.06406

> <Dihedral Energy>
2.12107

> <OOPLane>
0.17568

> <Van der Waals Energy>
68.11009

> <Electrostatic Energy>
-55.22661

> <Hydrogen Bond Energy>
0

> <Solvation Free Energy>
0

> <HasGasteigerCharges>
true

> <REMARK99>
REMARK  99  MacroMolecule created from Mol2 file
REMARK  99  CHEMBL3597424
REMARK  99  PROTEIN
REMARK  99  GASTEIGER
REMARK  99
REMARK  99

$$$$
CHEMBL1819396
  SciTegic05292516403D

 67 69  0  0  0  0            999 V2000
   11.2608   -8.8577   -0.3978 C   0  0
   11.2247  -10.2004   -0.7949 C   0  0
   12.3896  -10.8520   -1.1925 C   0  0
   13.5957  -10.1403   -1.1927 C   0  0
   13.6612   -8.7977   -0.7774 C   0  0
   12.4661   -8.1560   -0.3873 C   0  0
   14.9512   -7.9889   -0.8170 C   0  0
   16.3002   -8.7361   -0.7705 C   0  0  1  0  0  0
   17.3978   -7.7159   -1.0569 C   0  0
   18.4189   -8.2197   -1.7947 O   0  0
   17.3971   -6.5569   -0.6659 O   0  0
   16.5422   -9.3926    0.6003 C   0  0
   17.7320  -10.3590    0.5935 C   0  0
   17.8835  -11.0628    1.9427 C   0  0
   19.0631  -12.0222    1.9402 C   0  0
   12.6002   -6.8578    0.0165 O   0  0
   11.4426   -6.0257    0.1145 C   0  0
   11.9374   -4.6290    0.5050 C   0  0
   10.8950   -3.5376    0.4881 C   0  0
   11.1809   -2.3148   -0.1375 C   0  0
   10.2502   -1.2743   -0.1291 C   0  0
    9.0251   -1.4413    0.5102 C   0  0
    8.7301   -2.6449    1.1463 C   0  0
    9.6632   -3.6854    1.1414 C   0  0
   12.4943  -12.1595   -1.5930 O   0  0
   11.3034  -12.9542   -1.6313 C   0  0
   11.0333  -13.6044   -0.2705 C   0  0
    9.5752  -13.9416   -0.0790 C   0  0
    8.7447  -13.0404    0.6049 C   0  0
    7.3847  -13.3004    0.7562 C   0  0
    6.8421  -14.4689    0.2293 C   0  0
    7.6604  -15.3719   -0.4483 C   0  0
    9.0234  -15.1124   -0.6054 C   0  0
   10.3308   -8.3912   -0.0904 H   0  0
   10.2637  -10.7016   -0.7772 H   0  0
   14.4859  -10.6657   -1.5250 H   0  0
   14.9111   -7.3867   -1.7355 H   0  0
   14.9472   -7.2786    0.0210 H   0  0
   16.3140   -9.4867   -1.5682 H   0  0
   18.2868   -9.1521   -2.0476 H   0  0
   16.7117   -8.6195    1.3609 H   0  0
   15.6493   -9.9478    0.9097 H   0  0
   17.5925  -11.1075   -0.1958 H   0  0
   18.6562   -9.8154    0.3680 H   0  0
   18.0253  -10.3198    2.7361 H   0  0
   16.9687  -11.6192    2.1783 H   0  0
   19.1564  -12.5110    2.9150 H   0  0
   19.9990  -11.4929    1.7346 H   0  0
   18.9341  -12.8000    1.1809 H   0  0
   10.9234   -5.9917   -0.8507 H   0  0
   10.7678   -6.4114    0.8864 H   0  0
   12.3867   -4.6679    1.5061 H   0  0
   12.7633   -4.3596   -0.1674 H   0  0
   12.1385   -2.1516   -0.6291 H   0  0
   10.4907   -0.3323   -0.6157 H   0  0
    8.3055   -0.6272    0.5200 H   0  0
    7.7764   -2.7726    1.6536 H   0  0
    9.4181   -4.6066    1.6648 H   0  0
   10.4528  -12.3899   -2.0312 H   0  0
   11.4837  -13.7492   -2.3656 H   0  0
   11.6408  -14.5129   -0.1687 H   0  0
   11.3687  -12.9538    0.5470 H   0  0
    9.1597  -12.1225    1.0196 H   0  0
    6.7505  -12.5912    1.2826 H   0  0
    5.7825  -14.6820    0.3475 H   0  0
    7.2340  -16.2863   -0.8545 H   0  0
    9.6312  -15.8437   -1.1346 H   0  0
  1  2  2  0
  1 34  1  0
  2  3  1  0
  2 35  1  0
  3  4  2  0
  3 25  1  0
  4  5  1  0
  4 36  1  0
  5  6  2  0
  5  7  1  0
  6  1  1  0
  6 16  1  0
  7  8  1  0
  7 37  1  0
  7 38  1  0
  8  9  1  0
  8 12  1  0
  8 39  1  0
  9 10  1  0
  9 11  2  0
 10 40  1  0
 12 13  1  0
 12 41  1  0
 12 42  1  0
 13 14  1  0
 13 43  1  0
 13 44  1  0
 14 15  1  0
 14 45  1  0
 14 46  1  0
 15 47  1  0
 15 48  1  0
 15 49  1  0
 16 17  1  0
 17 18  1  0
 17 50  1  0
 17 51  1  0
 18 19  1  0
 18 52  1  0
 18 53  1  0
 19 20  2  0
 20 21  1  0
 20 54  1  0
 21 22  2  0
 21 55  1  0
 22 23  1  0
 22 56  1  0
 23 24  2  0
 23 57  1  0
 24 19  1  0
 24 58  1  0
 25 26  1  0
 26 27  1  0
 26 59  1  0
 26 60  1  0
 27 28  1  0
 27 61  1  0
 27 62  1  0
 28 29  2  0
 29 30  1  0
 29 63  1  0
 30 31  2  0
 30 64  1  0
 31 32  1  0
 31 65  1  0
 32 33  2  0
 32 66  1  0
 33 28  1  0
 33 67  1  0
M  END
> <Name>
CHEMBL1819396

> <Clean Energy>
15.664

> <chembl_id>
CHEMBL1819396

> <chembl_pref_name>
None

> <efficacy>
0.921177588

> <Forcefield>
MMFF

> <ForcefieldBase>
MMFF

> <ForcefieldFFML>
<?xml version="1.0" encoding="UTF-8"?>
<!DOCTYPE ffml SYSTEM "Ffml.dtd">
<ffml version="1.0">
<forcefield name="MMFF" derivedFrom="MMFF" base="MMFF">
<atomTypes>
<atomType
name="C100"
element="C"
mass="12.011"
annotation=""/>
<atomType
name="O101"
element="O"
mass="16"
annotation=""/>
<atomType
name="H102"
element="H"
mass="1.008"
annotation=""/>
</atomTypes>
<parameters>
</parameters>
</forcefield>
</ffml>

> <Initial Potential Energy>
153.06067

> <Initial RMS Gradient>
27.11237

> <Minimization Criteria>
STEEPD> Minimization exiting with gradient tolerance ( 3.0000000) satisfied.

> <CHARMm Energy>
56.18142

> <Potential Energy>
56.18142

> <RMS Gradient>
0.02362

> <Bond Energy>
7.00308

> <Angle Energy>
20.99776

> <STRBend>
0.27751

> <Dihedral Energy>
-8.26715

> <OOPLane>
0.07177

> <Van der Waals Energy>
68.6175

> <Electrostatic Energy>
-32.51906

> <Hydrogen Bond Energy>
0

> <Solvation Free Energy>
0

> <HasGasteigerCharges>
true

> <REMARK99>
REMARK  99  MacroMolecule created from Mol2 file
REMARK  99  CHEMBL1819396
REMARK  99  PROTEIN
REMARK  99  GASTEIGER
REMARK  99
REMARK  99

$$$$
CHEMBL86657
  SciTegic05292516403D

 57 59  0  0  0  0            999 V2000
   11.2427    0.4488   -0.4269 C   0  0
    0.7150   -1.2691    0.0452 N   0  0
    9.8207   -0.0709   -0.2289 C   0  0  2  0  0  0
   11.6136    1.6038   -0.2816 O   0  0
    9.3953    0.2071    1.2144 C   0  0
    0.2969    0.0769   -0.0822 C   0  0
   -0.1395   -2.3491   -0.2969 C   0  0
    7.9329   -0.0840    1.4459 C   0  0
   12.0928   -0.5506   -0.7903 O   0  0
    5.2152   -0.6862    1.7631 C   0  0
    9.9076   -1.5001   -0.4762 O   0  0
    6.9499    0.8069    0.9944 C   0  0
    7.5398   -1.2673    2.0819 C   0  0
    5.5957    0.5089    1.1557 C   0  0
    6.1876   -1.5601    2.2461 C   0  0
    3.9261   -1.0897    1.9573 O   0  0
    1.7587   -1.5162    1.0682 C   0  0
    2.9764   -0.5975    1.0026 C   0  0
    0.9666    0.9563   -0.9446 C   0  0
   -0.8201    0.5485    0.6224 C   0  0
   -0.8661   -2.2944   -1.5010 C   0  0
   -0.3223   -3.4816    0.5132 C   0  0
    8.8450   -1.9649   -1.3161 C   0  0
    8.9573   -3.4719   -1.4297 C   0  0
   -1.2469    1.8695    0.4782 C   0  0
   -1.7163   -3.3317   -1.8914 C   0  0
   -1.1787   -4.5200    0.1292 C   0  0
    0.5369    2.2787   -1.0916 C   0  0
   -0.5732    2.7342   -0.3817 C   0  0
   -1.8674   -4.4475   -1.0767 C   0  0
    9.1850    0.4189   -0.9765 H   0  0
    9.9999   -0.3938    1.9066 H   0  0
    9.5830    1.2554    1.4805 H   0  0
   11.5442   -1.3752   -0.8040 H   0  0
    7.2305    1.7416    0.5134 H   0  0
    8.2818   -1.9771    2.4412 H   0  0
    4.8609    1.2288    0.8096 H   0  0
    5.8904   -2.4831    2.7370 H   0  0
    1.3161   -1.4601    2.0723 H   0  0
    2.1425   -2.5405    0.9629 H   0  0
    3.3953   -0.6234   -0.0113 H   0  0
    2.7053    0.4285    1.2737 H   0  0
    1.8193    0.6050   -1.5214 H   0  0
   -1.3715   -0.1203    1.2798 H   0  0
   -0.7569   -1.4363   -2.1604 H   0  0
    0.1684   -3.5717    1.4771 H   0  0
    7.8728   -1.6964   -0.8937 H   0  0
    8.9438   -1.5085   -2.3070 H   0  0
    8.1701   -3.8747   -2.0730 H   0  0
    8.8803   -3.9386   -0.4422 H   0  0
    9.9312   -3.7563   -1.8417 H   0  0
   -2.1196    2.2176    1.0251 H   0  0
   -2.2596   -3.2622   -2.8296 H   0  0
   -1.3137   -5.3816    0.7784 H   0  0
    1.0581    2.9484   -1.7706 H   0  0
   -0.9322    3.7548   -0.5070 H   0  0
   -2.5288   -5.2551   -1.3750 H   0  0
  2 17  1  0
  3  1  1  0
  3 11  1  0
  3 31  1  0
  4  1  2  0
  5  3  1  0
  5 32  1  0
  5 33  1  0
  6  2  1  0
  7  2  1  0
  8  5  1  0
  9  1  1  0
  9 34  1  0
 10 15  1  0
 12  8  2  0
 12 35  1  0
 13  8  1  0
 13 36  1  0
 14 10  2  0
 14 12  1  0
 14 37  1  0
 15 13  2  0
 15 38  1  0
 16 10  1  0
 17 18  1  0
 17 39  1  0
 17 40  1  0
 18 16  1  0
 18 41  1  0
 18 42  1  0
 19  6  2  0
 19 43  1  0
 20  6  1  0
 20 44  1  0
 21  7  2  0
 21 45  1  0
 22  7  1  0
 22 46  1  0
 23 11  1  0
 23 47  1  0
 23 48  1  0
 24 23  1  0
 24 49  1  0
 24 50  1  0
 24 51  1  0
 25 20  2  0
 25 52  1  0
 26 21  1  0
 26 30  2  0
 26 53  1  0
 27 22  2  0
 27 54  1  0
 28 19  1  0
 28 29  2  0
 28 55  1  0
 29 25  1  0
 29 56  1  0
 30 27  1  0
 30 57  1  0
M  END
> <Name>
CHEMBL86657

> <Clean Energy>
32.016201

> <chembl_id>
CHEMBL86657

> <chembl_pref_name>
None

> <efficacy>
0.91

> <Forcefield>
MMFF

> <ForcefieldBase>
MMFF

> <ForcefieldFFML>
<?xml version="1.0" encoding="UTF-8"?>
<!DOCTYPE ffml SYSTEM "Ffml.dtd">
<ffml version="1.0">
<forcefield name="MMFF" derivedFrom="MMFF" base="MMFF">
<atomTypes>
<atomType
name="C100"
element="C"
mass="12.011"
annotation=""/>
<atomType
name="N101"
element="N"
mass="14.007"
annotation=""/>
<atomType
name="O102"
element="O"
mass="16"
annotation=""/>
<atomType
name="H103"
element="H"
mass="1.008"
annotation=""/>
</atomTypes>
<parameters>
</parameters>
</forcefield>
</ffml>

> <Initial Potential Energy>
297.61417

> <Initial RMS Gradient>
49.84833

> <Minimization Criteria>
CONJUG> Minimization exiting with gradient tolerance ( 0.0100000) satisfied.

> <CHARMm Energy>
89.93873

> <Potential Energy>
89.93873

> <RMS Gradient>
0.0084

> <Bond Energy>
6.22911

> <Angle Energy>
12.87651

> <STRBend>
1.0642

> <Dihedral Energy>
21.37201

> <OOPLane>
1.07362

> <Van der Waals Energy>
67.75067

> <Electrostatic Energy>
-20.4274

> <Hydrogen Bond Energy>
0

> <Solvation Free Energy>
0

> <HasGasteigerCharges>
true

> <REMARK99>
REMARK  99  MacroMolecule created from Mol2 file
REMARK  99  CHEMBL86657
REMARK  99  PROTEIN
REMARK  99  GASTEIGER
REMARK  99
REMARK  99

$$$$
CHEMBL3765141
  SciTegic05292516403D

 47 48  0  0  0  0            999 V2000
   -2.1286   -2.9627   -1.3933 F   0  0
   -0.8856   -2.7178   -0.8877 C   0  0
   -0.0145   -3.1083   -1.8562 F   0  0
    0.3101   -0.5008   -1.0301 C   0  0
    0.5046    0.8323   -0.6656 C   0  0
   -0.3378    1.4278    0.2638 C   0  0
   -1.3787    0.6904    0.8232 C   0  0
   -1.5941   -0.6564    0.4660 C   0  0
   -0.7325   -1.2658   -0.4735 C   0  0
   -2.7744   -1.3726    1.0828 C   0  0
   -4.0175   -0.9210    0.5222 N   0  0
   -0.7157   -3.5813    0.1479 F   0  0
   -5.2003   -1.4840    0.9440 C   0  0
   -6.4377   -0.8420    0.4390 C   0  0
   -5.2602   -2.4062    1.7484 O   0  0
   -7.5512   -0.8194    1.2831 C   0  0
   -8.6992   -0.1304    0.9009 C   0  0
   -8.7453    0.5392   -0.3287 C   0  0
   -7.6489    0.4607   -1.1977 C   0  0
   -6.4980   -0.2299   -0.8178 C   0  0
   -9.9463    1.3759   -0.6890 C   0  0
   -9.6900    2.8906   -0.5449 C   0  0  1  0  0  0
  -10.8868    3.6409   -1.0940 C   0  0
   -9.4529    3.3431    0.9102 C   0  0
   -7.9804    3.5954    1.2085 C   0  0
  -10.5980    4.9175   -1.4487 O   0  0
  -12.0163    3.1866   -1.1911 O   0  0
    0.9975   -0.9497   -1.7491 H   0  0
    1.3332    1.3933   -1.0952 H   0  0
   -0.1820    2.4639    0.5544 H   0  0
   -2.0443    1.1746    1.5387 H   0  0
   -2.7099   -2.4589    0.9693 H   0  0
   -2.7938   -1.1821    2.1634 H   0  0
   -4.0144   -0.1081   -0.0769 H   0  0
   -7.5153   -1.3147    2.2516 H   0  0
   -9.5473   -0.1013    1.5816 H   0  0
   -7.6819    0.9465   -2.1708 H   0  0
   -5.6636   -0.2868   -1.5105 H   0  0
  -10.2320    1.1399   -1.7233 H   0  0
  -10.8074    1.0753   -0.0771 H   0  0
   -8.8331    3.1545   -1.1789 H   0  0
   -9.9936    4.2744    1.1213 H   0  0
   -9.8451    2.6034    1.6178 H   0  0
   -7.8588    3.9297    2.2436 H   0  0
   -7.5782    4.3752    0.5537 H   0  0
   -7.3783    2.6934    1.0762 H   0  0
   -9.6566    5.1471   -1.3188 H   0  0
  2  1  1  0
  2 12  1  0
  3  2  1  0
  4  5  2  0
  4 28  1  0
  5  6  1  0
  5 29  1  0
  6  7  2  0
  6 30  1  0
  7  8  1  0
  7 31  1  0
  8  9  2  0
  8 10  1  0
  9  2  1  0
  9  4  1  0
 10 11  1  0
 10 32  1  0
 10 33  1  0
 11 13  1  0
 11 34  1  0
 13 14  1  0
 13 15  2  0
 14 16  2  0
 16 17  1  0
 16 35  1  0
 17 18  2  0
 17 36  1  0
 18 19  1  0
 18 21  1  0
 19 20  2  0
 19 37  1  0
 20 14  1  0
 20 38  1  0
 21 22  1  0
 21 39  1  0
 21 40  1  0
 22 23  1  0
 22 24  1  0
 22 41  1  0
 23 26  1  0
 23 27  2  0
 24 25  1  0
 24 42  1  0
 24 43  1  0
 25 44  1  0
 25 45  1  0
 25 46  1  0
 26 47  1  0
M  END
> <Name>
CHEMBL3765141

> <Clean Energy>
27.844101

> <chembl_id>
CHEMBL3765141

> <chembl_pref_name>
None

> <efficacy>
1.206077873

> <Forcefield>
MMFF

> <ForcefieldBase>
MMFF

> <ForcefieldFFML>
<?xml version="1.0" encoding="UTF-8"?>
<!DOCTYPE ffml SYSTEM "Ffml.dtd">
<ffml version="1.0">
<forcefield name="MMFF" derivedFrom="MMFF" base="MMFF">
<atomTypes>
<atomType
name="F100"
element="F"
mass="18.998"
annotation=""/>
<atomType
name="C101"
element="C"
mass="12.011"
annotation=""/>
<atomType
name="N102"
element="N"
mass="14.007"
annotation=""/>
<atomType
name="O103"
element="O"
mass="16"
annotation=""/>
<atomType
name="H104"
element="H"
mass="1.008"
annotation=""/>
</atomTypes>
<parameters>
</parameters>
</forcefield>
</ffml>

> <Initial Potential Energy>
95.58358

> <Initial RMS Gradient>
27.09881

> <Minimization Criteria>
STEEPD> Minimization exiting with gradient tolerance ( 3.0000000) satisfied.

> <CHARMm Energy>
20.31137

> <Potential Energy>
20.31137

> <RMS Gradient>
0.08596

> <Bond Energy>
5.20039

> <Angle Energy>
4.58954

> <STRBend>
0.60442

> <Dihedral Energy>
-0.94448

> <OOPLane>
0.21332

> <Van der Waals Energy>
46.89845

> <Electrostatic Energy>
-36.25028

> <Hydrogen Bond Energy>
0

> <Solvation Free Energy>
0

> <HasGasteigerCharges>
true

> <REMARK99>
REMARK  99  MacroMolecule created from Mol2 file
REMARK  99  CHEMBL3765141
REMARK  99  PROTEIN
REMARK  99  GASTEIGER
REMARK  99
REMARK  99

$$$$
CHEMBL489559
  SciTegic05292516403D

 52 54  0  0  0  0            999 V2000
    0.2522  -19.6362   -0.9816 C   0  0
    0.2848  -20.8562   -0.3068 C   0  0
    1.4487  -21.2732    0.3528 C   0  0
    2.5834  -20.4483    0.3244 C   0  0
    2.5538  -19.2248   -0.3570 C   0  0
    1.3841  -18.8225   -1.0094 C   0  0
    3.7516  -18.3593   -0.4319 C   0  0
    4.9969  -18.6827    0.3131 C   0  0
    3.8218  -17.2978   -1.1701 N   0  0
    5.1266  -16.7720   -1.0296 O   0  0
    5.7287  -17.3717    0.1262 C   0  0  2  0  0  0
    1.4867  -22.6120    1.0573 C   0  0
    2.2502  -23.6638    0.2431 C   0  0  2  0  0  0
    1.7264  -25.0439    0.6364 C   0  0
    3.6561  -23.5795    0.5638 O   0  0
    4.4787  -23.7924   -0.5878 C   0  0
    5.9281  -23.6870   -0.1578 C   0  0
    2.5899  -25.7358    1.4192 O   0  0
    0.6336  -25.4871    0.3126 O   0  0
    7.2215  -17.5520   -0.1309 C   0  0
    7.9556  -18.1192    1.0837 C   0  0
    9.3375  -18.5932    0.7146 C   0  0
    9.5408  -19.9309    0.3436 C   0  0
   10.8059  -20.3845   -0.0320 C   0  0
   11.8816  -19.5023   -0.0424 C   0  0
   11.6848  -18.1709    0.3218 C   0  0
   10.4212  -17.7118    0.6950 C   0  0
   -0.6523  -19.3194   -1.4939 H   0  0
   -0.6056  -21.4813   -0.3035 H   0  0
    3.4857  -20.7854    0.8276 H   0  0
    1.3486  -17.8770   -1.5475 H   0  0
    4.8212  -18.9065    1.3678 H   0  0
    5.4959  -19.5254   -0.1762 H   0  0
    5.5591  -16.6993    0.9760 H   0  0
    1.9492  -22.4738    2.0434 H   0  0
    0.4553  -22.9354    1.2477 H   0  0
    2.0876  -23.5422   -0.8356 H   0  0
    4.2805  -24.7854   -1.0053 H   0  0
    4.2607  -23.0291   -1.3428 H   0  0
    6.5997  -23.8416   -1.0067 H   0  0
    6.1561  -24.4294    0.6142 H   0  0
    6.1297  -22.7025    0.2778 H   0  0
    3.3975  -25.1873    1.5500 H   0  0
    7.3593  -18.1983   -1.0088 H   0  0
    7.6623  -16.5882   -0.4181 H   0  0
    8.0225  -17.3585    1.8716 H   0  0
    7.4034  -18.9577    1.5250 H   0  0
    8.7087  -20.6312    0.3392 H   0  0
   10.9369  -21.4247   -0.3189 H   0  0
   12.8748  -19.8366   -0.3366 H   0  0
   12.5217  -17.4802    0.3090 H   0  0
   10.2999  -16.6627    0.9616 H   0  0
  1  2  2  0
  1 28  1  0
  2  3  1  0
  2 29  1  0
  3  4  2  0
  3 12  1  0
  4  5  1  0
  4 30  1  0
  5  6  2  0
  5  7  1  0
  6  1  1  0
  6 31  1  0
  7  8  1  0
  7  9  2  0
  8 11  1  0
  8 32  1  0
  8 33  1  0
  9 10  1  0
 10 11  1  0
 11 20  1  0
 11 34  1  0
 12 13  1  0
 12 35  1  0
 12 36  1  0
 13 14  1  0
 13 15  1  0
 13 37  1  0
 14 18  1  0
 14 19  2  0
 15 16  1  0
 16 17  1  0
 16 38  1  0
 16 39  1  0
 17 40  1  0
 17 41  1  0
 17 42  1  0
 18 43  1  0
 20 21  1  0
 20 44  1  0
 20 45  1  0
 21 22  1  0
 21 46  1  0
 21 47  1  0
 22 23  2  0
 23 24  1  0
 23 48  1  0
 24 25  2  0
 24 49  1  0
 25 26  1  0
 25 50  1  0
 26 27  2  0
 26 51  1  0
 27 22  1  0
 27 52  1  0
M  END
> <Name>
CHEMBL489559

> <Clean Energy>
43.636398

> <chembl_id>
CHEMBL489559

> <chembl_pref_name>
None

> <efficacy>
1.19

> <Forcefield>
MMFF

> <ForcefieldBase>
MMFF

> <ForcefieldFFML>
<?xml version="1.0" encoding="UTF-8"?>
<!DOCTYPE ffml SYSTEM "Ffml.dtd">
<ffml version="1.0">
<forcefield name="MMFF" derivedFrom="MMFF" base="MMFF">
<atomTypes>
<atomType
name="C100"
element="C"
mass="12.011"
annotation=""/>
<atomType
name="N101"
element="N"
mass="14.007"
annotation=""/>
<atomType
name="O102"
element="O"
mass="16"
annotation=""/>
<atomType
name="H103"
element="H"
mass="1.008"
annotation=""/>
</atomTypes>
<parameters>
</parameters>
</forcefield>
</ffml>

> <Initial Potential Energy>
214.96983

> <Initial RMS Gradient>
38.14826

> <Minimization Criteria>
STEEPD> Minimization exiting with gradient tolerance ( 3.0000000) satisfied.

> <CHARMm Energy>
77.24332

> <Potential Energy>
77.24332

> <RMS Gradient>
0.01836

> <Bond Energy>
4.57455

> <Angle Energy>
8.18276

> <STRBend>
0.87729

> <Dihedral Energy>
5.319

> <OOPLane>
0.06004

> <Van der Waals Energy>
46.14204

> <Electrostatic Energy>
12.08764

> <Hydrogen Bond Energy>
0

> <Solvation Free Energy>
0

> <HasGasteigerCharges>
true

> <REMARK99>
REMARK  99  MacroMolecule created from Mol2 file
REMARK  99  CHEMBL489559
REMARK  99  PROTEIN
REMARK  99  GASTEIGER
REMARK  99
REMARK  99

$$$$
CHEMBL221641
  SciTegic05292516403D

 57 60  0  0  0  0            999 V2000
   14.0932  -19.2846   -1.5150 C   0  0
   14.0139  -19.1092   -0.0160 C   0  0
   13.6674  -17.6255    0.1220 C   0  0  1  0  0  0
   12.9559  -17.2524   -1.0930 O   0  0
   12.9835  -18.3770   -1.9924 C   0  0
   10.5673  -19.8370    2.8872 C   0  0
    9.4157  -19.5796    2.1615 C   0  0
    9.3076  -18.6249    1.2090 N   0  0
   10.4263  -17.8911    0.9821 C   0  0
   11.6362  -18.0622    1.6586 C   0  0
   11.6920  -19.0607    2.6355 C   0  0
    8.3286  -20.3858    2.4426 O   0  0
    7.1092  -19.9640    1.8217 C   0  0
    6.9766  -20.5450    0.4139 C   0  0
    5.7775  -20.0224   -0.2837 C   0  0
    5.6766  -19.3377   -1.4744 C   0  0
    4.3608  -19.0281   -1.6702 O   0  0
    3.7157  -19.5498   -0.5749 C   0  0
    4.5266  -20.1602    0.2707 N   0  0
    2.2909  -19.2768   -0.4535 C   0  0
    1.6000  -18.5230   -1.4130 C   0  0
    0.2490  -18.2237   -1.2402 C   0  0
   -0.4313  -18.6675   -0.0978 C   0  0
    0.2449  -19.4446    0.8497 C   0  0
    1.5957  -19.7417    0.6728 C   0  0
    6.6400  -18.8796   -2.4896 C   0  0
   12.8498  -17.2157    1.3615 C   0  0
   14.9695  -16.8061    0.1632 C   0  0
   15.0731  -15.9153   -0.8586 O   0  0
   15.8477  -16.9287    1.0061 O   0  0
   -1.8900  -18.3621    0.0677 C   0  0
   -2.2548  -17.1380   -0.4185 F   0  0
   -2.3328  -18.3834    1.3584 F   0  0
   -2.6786  -19.2570   -0.5975 F   0  0
   15.0612  -18.9253   -1.8835 H   0  0
   13.9659  -20.3201   -1.8409 H   0  0
   13.2164  -19.7574    0.3596 H   0  0
   14.9410  -19.4005    0.4870 H   0  0
   12.0090  -18.8737   -1.9352 H   0  0
   13.1380  -18.0230   -3.0153 H   0  0
   10.5797  -20.6200    3.6367 H   0  0
   10.3191  -17.1305    0.2120 H   0  0
   12.6041  -19.2420    3.1997 H   0  0
    6.2963  -20.3537    2.4476 H   0  0
    6.9928  -18.8717    1.8452 H   0  0
    7.8760  -20.3393   -0.1770 H   0  0
    6.9153  -21.6385    0.4783 H   0  0
    2.1165  -18.1499   -2.2957 H   0  0
   -0.2762  -17.6400   -1.9969 H   0  0
   -0.2779  -19.8184    1.7298 H   0  0
    2.1143  -20.3327    1.4266 H   0  0
    6.1300  -18.4665   -3.3653 H   0  0
    7.2688  -19.7101   -2.8248 H   0  0
    7.2890  -18.1021   -2.0753 H   0  0
   12.5099  -16.1769    1.2459 H   0  0
   13.4920  -17.2128    2.2528 H   0  0
   14.2395  -15.9819   -1.3842 H   0  0
  1  2  1  0
  1 35  1  0
  1 36  1  0
  2  3  1  0
  2 37  1  0
  2 38  1  0
  3  4  1  0
  3 28  1  0
  4  5  1  0
  5  1  1  0
  5 39  1  0
  5 40  1  0
  6  7  2  0
  6 41  1  0
  7  8  1  0
  7 12  1  0
  8  9  2  0
  9 10  1  0
  9 42  1  0
 10 11  2  0
 10 27  1  0
 11  6  1  0
 11 43  1  0
 12 13  1  0
 13 14  1  0
 13 44  1  0
 13 45  1  0
 14 15  1  0
 14 46  1  0
 14 47  1  0
 15 16  2  0
 16 17  1  0
 16 26  1  0
 17 18  1  0
 18 19  2  0
 18 20  1  0
 19 15  1  0
 20 21  2  0
 21 22  1  0
 21 48  1  0
 22 23  2  0
 22 49  1  0
 23 24  1  0
 23 31  1  0
 24 25  2  0
 24 50  1  0
 25 20  1  0
 25 51  1  0
 26 52  1  0
 26 53  1  0
 26 54  1  0
 27  3  1  0
 27 55  1  0
 27 56  1  0
 28 29  1  0
 28 30  2  0
 29 57  1  0
 31 32  1  0
 31 33  1  0
 31 34  1  0
M  END
> <Name>
CHEMBL221641

> <Clean Energy>
89.565598

> <chembl_id>
CHEMBL221641

> <chembl_pref_name>
None

> <efficacy>
1.032608696

> <Forcefield>
MMFF

> <ForcefieldBase>
MMFF

> <ForcefieldFFML>
<?xml version="1.0" encoding="UTF-8"?>
<!DOCTYPE ffml SYSTEM "Ffml.dtd">
<ffml version="1.0">
<forcefield name="MMFF" derivedFrom="MMFF" base="MMFF">
<atomTypes>
<atomType
name="C100"
element="C"
mass="12.011"
annotation=""/>
<atomType
name="O101"
element="O"
mass="16"
annotation=""/>
<atomType
name="N102"
element="N"
mass="14.007"
annotation=""/>
<atomType
name="F103"
element="F"
mass="18.998"
annotation=""/>
<atomType
name="H104"
element="H"
mass="1.008"
annotation=""/>
</atomTypes>
<parameters>
</parameters>
</forcefield>
</ffml>

> <Initial Potential Energy>
230.80989

> <Initial RMS Gradient>
31.209

> <Minimization Criteria>
STEEPD> Minimization exiting with gradient tolerance ( 3.0000000) satisfied.

> <CHARMm Energy>
70.6131

> <Potential Energy>
70.6131

> <RMS Gradient>
0.05832

> <Bond Energy>
5.14763

> <Angle Energy>
11.98911

> <STRBend>
1.12085

> <Dihedral Energy>
2.10169

> <OOPLane>
0.10025

> <Van der Waals Energy>
49.8358

> <Electrostatic Energy>
0.31777

> <Hydrogen Bond Energy>
0

> <Solvation Free Energy>
0

> <HasGasteigerCharges>
true

> <REMARK99>
REMARK  99  MacroMolecule created from Mol2 file
REMARK  99  CHEMBL221641
REMARK  99  PROTEIN
REMARK  99  GASTEIGER
REMARK  99
REMARK  99

$$$$
CHEMBL426550
  SciTegic05292516403D

 58 61  0  0  0  0            999 V2000
   20.2284  -25.1870    1.2403 C   0  0
   19.4282  -23.9647    1.6277 C   0  0
   20.0424  -22.8703    0.7486 C   0  0  1  0  0  0
   20.6756  -23.5412   -0.3845 O   0  0
   20.4461  -24.9552   -0.2358 C   0  0
   15.3870  -22.4922    0.2145 C   0  0
   15.2956  -23.1650   -0.9952 C   0  0
   16.3637  -23.3584   -1.7983 N   0  0
   17.5551  -22.8706   -1.3901 C   0  0
   17.7465  -22.1986   -0.1914 C   0  0
   16.6262  -22.0009    0.6165 C   0  0
   14.1539  -23.7249   -1.4902 O   0  0
   12.9237  -23.2775   -0.9239 C   0  0
   11.7904  -23.8471   -1.7662 C   0  0
   10.4653  -23.3176   -1.3590 C   0  0
    9.7956  -22.1990   -1.8060 C   0  0
    8.6051  -22.1319   -1.1421 O   0  0
    8.5985  -23.2359   -0.3279 C   0  0
    9.7054  -23.9558   -0.4032 N   0  0
    7.4055  -23.4474    0.4889 C   0  0
    6.3542  -22.5134    0.5186 C   0  0
    5.2225  -22.7363    1.3065 C   0  0
    5.1384  -23.9013    2.0723 C   0  0
    6.1689  -24.8376    2.0545 C   0  0
    7.2969  -24.6098    1.2659 C   0  0
   10.0695  -21.1353   -2.7871 C   0  0
   19.1092  -21.7460    0.2573 C   0  0
   21.1641  -22.1718    1.5264 C   0  0
   22.3574  -22.2415    0.8863 O   0  0
   21.0189  -21.5987    2.5959 O   0  0
    4.1436  -21.9024    1.4184 O   0  0
    4.1530  -20.7253    0.6205 C   0  0
   21.1888  -25.1866    1.7690 H   0  0
   19.7167  -26.1289    1.4538 H   0  0
   18.3785  -24.1563    1.3869 H   0  0
   19.4819  -23.7585    2.7012 H   0  0
   19.5600  -25.2217   -0.8216 H   0  0
   21.3057  -25.5059   -0.6266 H   0  0
   14.5353  -22.3534    0.8679 H   0  0
   18.3805  -23.0568   -2.0735 H   0  0
   16.7100  -21.4862    1.5712 H   0  0
   12.8288  -23.6392    0.1073 H   0  0
   12.8781  -22.1804   -0.9330 H   0  0
   11.9716  -23.6294   -2.8262 H   0  0
   11.7939  -24.9419   -1.6918 H   0  0
    6.4460  -21.6133   -0.0809 H   0  0
    4.2597  -24.0792    2.6873 H   0  0
    6.1036  -25.7425    2.6514 H   0  0
    8.0958  -25.3494    1.2573 H   0  0
    9.2892  -21.1105   -3.5538 H   0  0
   11.0306  -21.2915   -3.2856 H   0  0
   10.0985  -20.1594   -2.2929 H   0  0
   19.5808  -21.2138   -0.5804 H   0  0
   18.9752  -20.9914    1.0442 H   0  0
   22.2416  -22.7514    0.0505 H   0  0
    3.2196  -20.1864    0.8091 H   0  0
    4.1865  -20.9707   -0.4462 H   0  0
    4.9803  -20.0654    0.9015 H   0  0
  1  2  1  0
  1 33  1  0
  1 34  1  0
  2  3  1  0
  2 35  1  0
  2 36  1  0
  3  4  1  0
  3 28  1  0
  4  5  1  0
  5  1  1  0
  5 37  1  0
  5 38  1  0
  6  7  2  0
  6 39  1  0
  7  8  1  0
  7 12  1  0
  8  9  2  0
  9 10  1  0
  9 40  1  0
 10 11  2  0
 10 27  1  0
 11  6  1  0
 11 41  1  0
 12 13  1  0
 13 14  1  0
 13 42  1  0
 13 43  1  0
 14 15  1  0
 14 44  1  0
 14 45  1  0
 15 16  2  0
 16 17  1  0
 16 26  1  0
 17 18  1  0
 18 19  2  0
 18 20  1  0
 19 15  1  0
 20 21  2  0
 21 22  1  0
 21 46  1  0
 22 23  2  0
 22 31  1  0
 23 24  1  0
 23 47  1  0
 24 25  2  0
 24 48  1  0
 25 20  1  0
 25 49  1  0
 26 50  1  0
 26 51  1  0
 26 52  1  0
 27  3  1  0
 27 53  1  0
 27 54  1  0
 28 29  1  0
 28 30  2  0
 29 55  1  0
 31 32  1  0
 32 56  1  0
 32 57  1  0
 32 58  1  0
M  END
> <Name>
CHEMBL426550

> <Clean Energy>
76.835899

> <chembl_id>
CHEMBL426550

> <chembl_pref_name>
None

> <efficacy>
1.010869565

> <Forcefield>
MMFF

> <ForcefieldBase>
MMFF

> <ForcefieldFFML>
<?xml version="1.0" encoding="UTF-8"?>
<!DOCTYPE ffml SYSTEM "Ffml.dtd">
<ffml version="1.0">
<forcefield name="MMFF" derivedFrom="MMFF" base="MMFF">
<atomTypes>
<atomType
name="C100"
element="C"
mass="12.011"
annotation=""/>
<atomType
name="O101"
element="O"
mass="16"
annotation=""/>
<atomType
name="N102"
element="N"
mass="14.007"
annotation=""/>
<atomType
name="H103"
element="H"
mass="1.008"
annotation=""/>
</atomTypes>
<parameters>
</parameters>
</forcefield>
</ffml>

> <Initial Potential Energy>
200.86215

> <Initial RMS Gradient>
30.31805

> <Minimization Criteria>
STEEPD> Minimization exiting with gradient tolerance ( 3.0000000) satisfied.

> <CHARMm Energy>
69.95203

> <Potential Energy>
69.95203

> <RMS Gradient>
0.05192

> <Bond Energy>
4.68021

> <Angle Energy>
20.0478

> <STRBend>
0.55588

> <Dihedral Energy>
1.96441

> <OOPLane>
0.02558

> <Van der Waals Energy>
54.33883

> <Electrostatic Energy>
-11.66068

> <Hydrogen Bond Energy>
0

> <Solvation Free Energy>
0

> <HasGasteigerCharges>
true

> <REMARK99>
REMARK  99  MacroMolecule created from Mol2 file
REMARK  99  CHEMBL426550
REMARK  99  PROTEIN
REMARK  99  GASTEIGER
REMARK  99
REMARK  99

$$$$
CHEMBL233785
  SciTegic05292516403D

 58 59  0  0  0  0            999 V2000
   -7.5197   -1.5936   -1.0672 C   0  0
   -8.0041   -2.5741   -0.2037 C   0  0
   -7.3633   -2.8154    1.0097 C   0  0
   -6.2318   -2.0785    1.3582 C   0  0
   -5.7355   -1.0847    0.4997 C   0  0
   -6.3922   -0.8514   -0.7182 C   0  0
   -4.4856   -0.3137    0.8818 C   0  0  1  0  0  0
   -3.3014   -0.8369    0.0744 C   0  0
   -4.6407    1.0977    0.5775 O   0  0
   -5.3372    1.9555    1.3633 C   0  0
   -5.6370    3.1418    0.7558 N   0  0
   -5.7997    1.6577    2.9293 S   0  0
   -5.2686    3.4829   -0.6031 C   0  0
   -5.5750    4.9339   -0.9176 C   0  0
   -1.9962   -0.2099    0.5610 C   0  0
   -0.8240   -0.9243   -0.0511 C   0  0
   -0.5123   -2.2235    0.3711 C   0  0
    0.5440   -2.9130   -0.2068 C   0  0
    1.3221   -2.2983   -1.1942 C   0  0
    1.0036   -1.0069   -1.6307 C   0  0
   -0.0687   -0.3242   -1.0632 C   0  0
    2.5456   -3.0021   -1.7113 C   0  0
    3.6269   -3.0662   -0.6318 C   0  0  1  0  0  0
    4.6564   -4.0992   -1.0678 C   0  0
    5.8378   -3.5193   -1.4032 O   0  0
    4.4732   -5.3056   -1.1276 O   0  0
    4.3496   -1.8104   -0.5416 O   0  0
    3.9388   -1.0413    0.5957 C   0  0
    4.6849    0.2777    0.5648 C   0  0
   -8.0298   -1.4014   -2.0080 H   0  0
   -8.8905   -3.1442   -0.4715 H   0  0
   -7.7573   -3.5704    1.6870 H   0  0
   -5.7369   -2.2823    2.3056 H   0  0
   -6.0271   -0.0868   -1.4004 H   0  0
   -4.2631   -0.4466    1.9468 H   0  0
   -3.2602   -1.9304    0.1617 H   0  0
   -3.4256   -0.6096   -0.9932 H   0  0
   -6.2251    3.7776    1.2879 H   0  0
   -4.1997    3.2836   -0.7356 H   0  0
   -5.8219    2.8199   -1.2768 H   0  0
   -5.2894    5.1709   -1.9469 H   0  0
   -5.0285    5.6036   -0.2454 H   0  0
   -6.6436    5.1429   -0.8005 H   0  0
   -1.9682    0.8581    0.3134 H   0  0
   -1.9127   -0.2759    1.6533 H   0  0
   -1.0991   -2.7067    1.1493 H   0  0
    0.7721   -3.9223    0.1319 H   0  0
    1.6050   -0.5172   -2.3944 H   0  0
   -0.3067    0.6787   -1.4096 H   0  0
    2.2488   -4.0068   -2.0389 H   0  0
    2.9274   -2.4857   -2.6014 H   0  0
    3.2676   -3.3765    0.3569 H   0  0
    5.7362   -2.5479   -1.2494 H   0  0
    2.8631   -0.8549    0.5761 H   0  0
    4.1913   -1.5878    1.5109 H   0  0
    4.4152    0.8989    1.4235 H   0  0
    4.4567    0.8270   -0.3546 H   0  0
    5.7669    0.1096    0.5756 H   0  0
  1  2  2  0
  1 30  1  0
  2  3  1  0
  2 31  1  0
  3  4  2  0
  3 32  1  0
  4  5  1  0
  4 33  1  0
  5  6  2  0
  5  7  1  0
  6  1  1  0
  6 34  1  0
  7  8  1  0
  7  9  1  0
  7 35  1  0
  8 15  1  0
  8 36  1  0
  8 37  1  0
  9 10  1  0
 10 11  1  0
 10 12  2  0
 11 13  1  0
 11 38  1  0
 13 14  1  0
 13 39  1  0
 13 40  1  0
 14 41  1  0
 14 42  1  0
 14 43  1  0
 15 16  1  0
 15 44  1  0
 15 45  1  0
 16 17  2  0
 17 18  1  0
 17 46  1  0
 18 19  2  0
 18 47  1  0
 19 20  1  0
 19 22  1  0
 20 21  2  0
 20 48  1  0
 21 16  1  0
 21 49  1  0
 22 23  1  0
 22 50  1  0
 22 51  1  0
 23 24  1  0
 23 27  1  0
 23 52  1  0
 24 25  1  0
 24 26  2  0
 25 53  1  0
 27 28  1  0
 28 29  1  0
 28 54  1  0
 28 55  1  0
 29 56  1  0
 29 57  1  0
 29 58  1  0
M  END
> <Name>
CHEMBL233785

> <Clean Energy>
26.0931

> <chembl_id>
CHEMBL233785

> <chembl_pref_name>
None

> <efficacy>
1.82

> <Forcefield>
MMFF

> <ForcefieldBase>
MMFF

> <ForcefieldFFML>
<?xml version="1.0" encoding="UTF-8"?>
<!DOCTYPE ffml SYSTEM "Ffml.dtd">
<ffml version="1.0">
<forcefield name="MMFF" derivedFrom="MMFF" base="MMFF">
<atomTypes>
<atomType
name="C100"
element="C"
mass="12.011"
annotation=""/>
<atomType
name="O101"
element="O"
mass="16"
annotation=""/>
<atomType
name="N102"
element="N"
mass="14.007"
annotation=""/>
<atomType
name="S103"
element="S"
mass="32.066"
annotation=""/>
<atomType
name="H104"
element="H"
mass="1.008"
annotation=""/>
</atomTypes>
<parameters>
</parameters>
</forcefield>
</ffml>

> <Initial Potential Energy>
125.11994

> <Initial RMS Gradient>
26.567

> <Minimization Criteria>
CONJUG> Minimization exiting with gradient tolerance ( 0.0100000) satisfied.

> <CHARMm Energy>
17.06433

> <Potential Energy>
17.06433

> <RMS Gradient>
0.00995

> <Bond Energy>
4.72642

> <Angle Energy>
10.00757

> <STRBend>
0.3494

> <Dihedral Energy>
-1.34793

> <OOPLane>
0.07261

> <Van der Waals Energy>
56.52614

> <Electrostatic Energy>
-53.26987

> <Hydrogen Bond Energy>
0

> <Solvation Free Energy>
0

> <HasGasteigerCharges>
true

> <REMARK99>
REMARK  99  MacroMolecule created from Mol2 file
REMARK  99  CHEMBL233785
REMARK  99  PROTEIN
REMARK  99  GASTEIGER
REMARK  99
REMARK  99

$$$$
CHEMBL3263231
  SciTegic05292516403D

 52 54  0  0  0  0            999 V2000
   23.8163   -8.3259   -0.5820 C   0  0
   23.6643   -9.6787   -0.2992 C   0  0
   24.7897  -10.4920   -0.1046 C   0  0
   26.0895   -9.9718   -0.1798 C   0  0
   26.2227   -8.5926   -0.4369 C   0  0
   25.0949   -7.7812   -0.6523 C   0  0
   27.5288   -7.8936   -0.4396 C   0  0
   28.3029   -8.0919    0.6850 N   0  0
   27.8298   -7.1430   -1.3591 O   0  0
   29.5348   -7.3588    0.8890 C   0  0
   30.7245   -8.1033    0.3007 C   0  0
   32.0003   -7.2648    0.3554 C   0  0
   33.1872   -8.0567   -0.1406 C   0  0
   34.2940   -7.2962   -0.2917 O   0  0
   33.1722   -9.2567   -0.3681 O   0  0
   27.2488  -10.7953   -0.0759 N   0  0
   27.2875  -12.1229    0.3211 C   0  0
   28.5870  -12.8500    0.1752 C   0  0
   26.3418  -12.7473    0.7910 O   0  0
   28.5461  -14.2538    0.1748 C   0  0
   29.7202  -15.0053    0.0609 C   0  0
   30.9688  -14.3746   -0.0507 C   0  0
   31.0006  -12.9697   -0.0512 C   0  0
   29.8260  -12.2124    0.0632 C   0  0
   32.2075  -15.1641   -0.1464 C   0  0
   32.4908  -16.1711    0.7929 C   0  0
   33.6621  -16.9230    0.7071 C   0  0
   34.5647  -16.6877   -0.3261 C   0  0
   34.3081  -15.6947   -1.2662 C   0  0
   33.1388  -14.9366   -1.1741 C   0  0
   22.9441   -7.6979   -0.7452 H   0  0
   22.6687  -10.1157   -0.2451 H   0  0
   24.6103  -11.5487    0.0722 H   0  0
   25.2166   -6.7198   -0.8624 H   0  0
   27.9220   -8.6406    1.4493 H   0  0
   29.4386   -6.3643    0.4390 H   0  0
   29.6612   -7.2294    1.9691 H   0  0
   30.8660   -9.0417    0.8513 H   0  0
   30.5189   -8.3870   -0.7396 H   0  0
   31.8804   -6.3773   -0.2754 H   0  0
   32.2058   -6.9516    1.3846 H   0  0
   34.1566   -6.3457   -0.1042 H   0  0
   28.1144  -10.3541   -0.3588 H   0  0
   27.5941  -14.7782    0.2634 H   0  0
   29.6497  -16.0941    0.0558 H   0  0
   31.9553  -12.4467   -0.1197 H   0  0
   29.9275  -11.1340    0.0863 H   0  0
   31.7934  -16.3630    1.6064 H   0  0
   33.8696  -17.6985    1.4404 H   0  0
   35.4656  -17.2900   -0.4008 H   0  0
   35.0140  -15.5108   -2.0725 H   0  0
   32.9502  -14.1695   -1.9226 H   0  0
  1  2  2  0
  1 31  1  0
  2  3  1  0
  2 32  1  0
  3  4  2  0
  3 33  1  0
  4  5  1  0
  4 16  1  0
  5  6  2  0
  5  7  1  0
  6  1  1  0
  6 34  1  0
  7  8  1  0
  7  9  2  0
  8 10  1  0
  8 35  1  0
 10 11  1  0
 10 36  1  0
 10 37  1  0
 11 12  1  0
 11 38  1  0
 11 39  1  0
 12 13  1  0
 12 40  1  0
 12 41  1  0
 13 14  1  0
 13 15  2  0
 14 42  1  0
 16 17  1  0
 16 43  1  0
 17 18  1  0
 17 19  2  0
 18 20  2  0
 20 21  1  0
 20 44  1  0
 21 22  2  0
 21 45  1  0
 22 23  1  0
 22 25  1  0
 23 24  2  0
 23 46  1  0
 24 18  1  0
 24 47  1  0
 25 26  2  0
 26 27  1  0
 26 48  1  0
 27 28  2  0
 27 49  1  0
 28 29  1  0
 28 50  1  0
 29 30  2  0
 29 51  1  0
 30 25  1  0
 30 52  1  0
M  END
> <Name>
CHEMBL3263231

> <Clean Energy>
-3.23302

> <chembl_id>
CHEMBL3263231

> <chembl_pref_name>
None

> <efficacy>
1.282051282

> <Forcefield>
MMFF

> <ForcefieldBase>
MMFF

> <ForcefieldFFML>
<?xml version="1.0" encoding="UTF-8"?>
<!DOCTYPE ffml SYSTEM "Ffml.dtd">
<ffml version="1.0">
<forcefield name="MMFF" derivedFrom="MMFF" base="MMFF">
<atomTypes>
<atomType
name="C100"
element="C"
mass="12.011"
annotation=""/>
<atomType
name="N101"
element="N"
mass="14.007"
annotation=""/>
<atomType
name="O102"
element="O"
mass="16"
annotation=""/>
<atomType
name="H103"
element="H"
mass="1.008"
annotation=""/>
</atomTypes>
<parameters>
</parameters>
</forcefield>
</ffml>

> <Initial Potential Energy>
240.17041

> <Initial RMS Gradient>
100.84159

> <Minimization Criteria>
CONJUG> Minimization exiting with gradient tolerance ( 0.0100000) satisfied.

> <CHARMm Energy>
30.30359

> <Potential Energy>
30.30359

> <RMS Gradient>
0.00926

> <Bond Energy>
6.90828

> <Angle Energy>
8.04905

> <STRBend>
0.81472

> <Dihedral Energy>
5.37162

> <OOPLane>
0.22669

> <Van der Waals Energy>
62.21799

> <Electrostatic Energy>
-53.28477

> <Hydrogen Bond Energy>
0

> <Solvation Free Energy>
0

> <HasGasteigerCharges>
true

> <REMARK99>
REMARK  99  MacroMolecule created from Mol2 file
REMARK  99  CHEMBL3263231
REMARK  99  PROTEIN
REMARK  99  GASTEIGER
REMARK  99
REMARK  99

$$$$
CHEMBL1945221
  SciTegic05292516403D

 71 75  0  0  0  0            999 V2000
    3.2891  -23.6764   -0.7147 C   0  0
    3.0347  -24.9983   -0.8547 C   0  0
    4.0341  -26.0182   -0.5581 C   0  0
    4.6927  -23.2965   -0.3207 C   0  0
    4.9292  -22.1945    0.1820 O   0  0
    2.2005  -22.6750   -0.9655 C   0  0
    2.5278  -21.2058   -0.9554 C   0  0
    1.0500  -23.0607   -1.1950 O   0  0
    1.8035  -25.5261   -1.2042 O   0  0
    5.8169  -24.2728   -0.6743 C   0  0  1  0  0  0
    5.3289  -25.6780   -0.4561 C   0  0
    6.3378  -26.4818    0.0845 O   0  0
    6.2422  -24.0405   -2.1318 C   0  0
    7.0253  -24.2923    0.2225 C   0  0
    7.3294  -25.6313    0.5585 C   0  0
    8.4757  -25.9884    1.2801 C   0  0
    9.2932  -24.9194    1.7136 C   0  0
    8.9926  -23.5828    1.3661 C   0  0
    7.8526  -23.2706    0.6344 C   0  0
    7.6084  -21.9614    0.3565 O   0  0
   10.4291  -25.1811    2.4529 O   0  0
   10.4984  -24.3989    3.6507 C   0  0
    8.7984  -27.4374    1.5490 C   0  0
    7.9184  -28.2906    1.4844 O   0  0
   10.1178  -27.7248    1.8600 N   0  0
   10.6981  -29.0605    1.9031 C   0  0
   11.6568  -29.3149    0.7476 C   0  0
   13.4814  -29.6695   -1.3694 C   0  0
   13.3166  -28.4008   -0.8150 C   0  0
   12.4360  -28.2457    0.2571 C   0  0
   12.7640  -30.7729   -0.8843 C   0  0
   11.8354  -30.6116    0.1803 C   0  0
   11.1420  -31.7688    0.6097 C   0  0
   11.3500  -33.0192    0.0207 C   0  0
   12.2616  -33.1517   -1.0161 C   0  0
   12.9659  -32.0374   -1.4634 C   0  0
   14.0502  -27.2060   -1.3646 C   0  0
   15.5074  -27.1592   -0.9142 C   0  0
   16.1660  -25.8597   -1.3606 C   0  0
   17.6565  -26.0170   -1.3821 C   0  0
   18.2940  -25.5873   -0.2691 O   0  0
   18.2668  -26.5256   -2.3126 O   0  0
    3.6920  -27.0228   -0.3255 H   0  0
    1.6855  -20.6483   -1.3769 H   0  0
    3.4015  -21.0033   -1.5801 H   0  0
    2.6894  -20.8652    0.0700 H   0  0
    1.1428  -24.8010   -1.3425 H   0  0
    7.0038  -24.7593   -2.4582 H   0  0
    6.6621  -23.0358   -2.2624 H   0  0
    5.3936  -24.1246   -2.8210 H   0  0
    9.6591  -22.7743    1.6542 H   0  0
    6.6331  -21.8105    0.3383 H   0  0
   11.1743  -24.9130    4.3409 H   0  0
    9.5219  -24.3097    4.1402 H   0  0
   10.9227  -23.4124    3.4412 H   0  0
   10.7254  -26.9331    2.0282 H   0  0
   11.2457  -29.1491    2.8471 H   0  0
    9.8707  -29.7721    1.9055 H   0  0
   14.1833  -29.8032   -2.1928 H   0  0
   12.3447  -27.2587    0.7016 H   0  0
   10.4093  -31.7135    1.4099 H   0  0
   10.8025  -33.8896    0.3737 H   0  0
   12.4288  -34.1212   -1.4784 H   0  0
   13.6803  -32.1695   -2.2751 H   0  0
   13.9936  -27.2283   -2.4607 H   0  0
   13.5364  -26.2853   -1.0587 H   0  0
   15.5776  -27.2427    0.1780 H   0  0
   16.0458  -28.0247   -1.3217 H   0  0
   15.8604  -25.5860   -2.3779 H   0  0
   15.8739  -25.0217   -0.7187 H   0  0
   17.6751  -25.2085    0.3879 H   0  0
  1  2  2  0
  1  4  1  0
  1  6  1  0
  2  3  1  0
  2  9  1  0
  3 11  2  0
  3 43  1  0
  4  5  2  0
  6  7  1  0
  6  8  2  0
  7 44  1  0
  7 45  1  0
  7 46  1  0
  9 47  1  0
 10  4  1  0
 10 11  1  0
 10 13  1  0
 11 12  1  0
 12 15  1  0
 13 48  1  0
 13 49  1  0
 13 50  1  0
 14 10  1  0
 14 15  2  0
 15 16  1  0
 16 17  2  0
 16 23  1  0
 17 18  1  0
 17 21  1  0
 18 19  2  0
 18 51  1  0
 19 14  1  0
 19 20  1  0
 20 52  1  0
 21 22  1  0
 22 53  1  0
 22 54  1  0
 22 55  1  0
 23 24  2  0
 23 25  1  0
 25 26  1  0
 25 56  1  0
 26 27  1  0
 26 57  1  0
 26 58  1  0
 27 32  2  0
 28 29  1  0
 28 59  1  0
 29 30  2  0
 29 37  1  0
 30 27  1  0
 30 60  1  0
 31 28  2  0
 31 32  1  0
 32 33  1  0
 33 34  2  0
 33 61  1  0
 34 35  1  0
 34 62  1  0
 35 36  2  0
 35 63  1  0
 36 31  1  0
 36 64  1  0
 37 38  1  0
 37 65  1  0
 37 66  1  0
 38 39  1  0
 38 67  1  0
 38 68  1  0
 39 40  1  0
 39 69  1  0
 39 70  1  0
 40 41  1  0
 40 42  2  0
 41 71  1  0
M  END
> <Name>
CHEMBL1945221

> <Clean Energy>
60.127701

> <chembl_id>
CHEMBL1945221

> <chembl_pref_name>
None

> <efficacy>
1.05

> <Forcefield>
MMFF

> <ForcefieldBase>
MMFF

> <ForcefieldFFML>
<?xml version="1.0" encoding="UTF-8"?>
<!DOCTYPE ffml SYSTEM "Ffml.dtd">
<ffml version="1.0">
<forcefield name="MMFF" derivedFrom="MMFF" base="MMFF">
<atomTypes>
<atomType
name="C100"
element="C"
mass="12.011"
annotation=""/>
<atomType
name="O101"
element="O"
mass="16"
annotation=""/>
<atomType
name="N102"
element="N"
mass="14.007"
annotation=""/>
<atomType
name="H103"
element="H"
mass="1.008"
annotation=""/>
</atomTypes>
<parameters>
</parameters>
</forcefield>
</ffml>

> <Initial Potential Energy>
158.08024

> <Initial RMS Gradient>
27.56734

> <Minimization Criteria>
CONJUG> Minimization exiting with gradient tolerance ( 0.0100000) satisfied.

> <CHARMm Energy>
33.64638

> <Potential Energy>
33.64638

> <RMS Gradient>
0.00975

> <Bond Energy>
11.9615

> <Angle Energy>
27.55776

> <STRBend>
0.80406

> <Dihedral Energy>
9.05713

> <OOPLane>
0.45784

> <Van der Waals Energy>
86.73114

> <Electrostatic Energy>
-102.92306

> <Hydrogen Bond Energy>
0

> <Solvation Free Energy>
0

> <HasGasteigerCharges>
true

> <REMARK99>
REMARK  99  MacroMolecule created from Mol2 file
REMARK  99  CHEMBL1945221
REMARK  99  PROTEIN
REMARK  99  GASTEIGER
REMARK  99
REMARK  99

$$$$
CHEMBL191060
  SciTegic05292516403D

 38 39  0  0  0  0            999 V2000
    1.5717   -6.3341    0.2306 C   0  0
    1.4150   -5.2971    1.3322 C   0  0
    1.3143   -3.8994    0.7766 C   0  0
    2.4649   -3.1302    0.5735 C   0  0
    2.3656   -1.8419    0.0431 C   0  0
    0.0704   -3.3634    0.4221 C   0  0
   -0.0273   -2.0739   -0.1117 C   0  0
    1.1208   -1.3033   -0.2895 C   0  0
    1.1657   -0.0457   -0.8291 O   0  0
   -0.0477    0.7318   -0.8305 C   0  0  2  0  0  0
   -0.7843    0.5266   -2.1568 C   0  0
   -0.0390   -0.1125   -3.0941 O   0  0
   -1.9224    0.9078   -2.3875 O   0  0
    0.3625    2.2073   -0.7058 C   0  0
   -0.6439    3.0371    0.0555 C   0  0
   -1.6920    3.6824   -0.6136 C   0  0
   -2.6261    4.4376    0.0973 C   0  0
   -2.5240    4.5521    1.4822 C   0  0
   -1.4892    3.9092    2.1586 C   0  0
   -0.5539    3.1533    1.4498 C   0  0
    1.6429   -7.3373    0.6625 H   0  0
    2.4768   -6.1534   -0.3593 H   0  0
    0.7166   -6.3193   -0.4537 H   0  0
    0.5224   -5.5216    1.9288 H   0  0
    2.2646   -5.3592    2.0232 H   0  0
    3.4454   -3.5322    0.8232 H   0  0
    3.2694   -1.2563   -0.1076 H   0  0
   -0.8355   -3.9528    0.5517 H   0  0
   -1.0152   -1.7203   -0.3906 H   0  0
   -0.6987    0.4397    0.0016 H   0  0
    0.8319   -0.3726   -2.7215 H   0  0
    1.3309    2.2874   -0.1931 H   0  0
    0.5306    2.6556   -1.6943 H   0  0
   -1.7957    3.5976   -1.6941 H   0  0
   -3.4355    4.9366   -0.4311 H   0  0
   -3.2521    5.1432    2.0325 H   0  0
   -1.4105    3.9973    3.2390 H   0  0
    0.2470    2.6580    1.9946 H   0  0
  1  2  1  0
  1 21  1  0
  1 22  1  0
  1 23  1  0
  2  3  1  0
  2 24  1  0
  2 25  1  0
  4  3  2  0
  4  5  1  0
  4 26  1  0
  5  8  2  0
  5 27  1  0
  6  3  1  0
  6  7  2  0
  6 28  1  0
  7  8  1  0
  7 29  1  0
  8  9  1  0
 10  9  1  0
 10 30  1  0
 11 10  1  0
 11 12  1  0
 11 13  2  0
 12 31  1  0
 14 10  1  0
 14 15  1  0
 14 32  1  0
 14 33  1  0
 16 15  2  0
 16 34  1  0
 17 16  1  0
 17 35  1  0
 18 17  2  0
 18 19  1  0
 18 36  1  0
 19 20  2  0
 19 37  1  0
 20 15  1  0
 20 38  1  0
M  END
> <Name>
CHEMBL191060

> <Clean Energy>
19.728001

> <chembl_id>
CHEMBL191060

> <chembl_pref_name>
None

> <efficacy>
1.16

> <Forcefield>
MMFF

> <ForcefieldBase>
MMFF

> <ForcefieldFFML>
<?xml version="1.0" encoding="UTF-8"?>
<!DOCTYPE ffml SYSTEM "Ffml.dtd">
<ffml version="1.0">
<forcefield name="MMFF" derivedFrom="MMFF" base="MMFF">
<atomTypes>
<atomType
name="C100"
element="C"
mass="12.011"
annotation=""/>
<atomType
name="O101"
element="O"
mass="16"
annotation=""/>
<atomType
name="H102"
element="H"
mass="1.008"
annotation=""/>
</atomTypes>
<parameters>
</parameters>
</forcefield>
</ffml>

> <Initial Potential Energy>
108.63283

> <Initial RMS Gradient>
28.9412

> <Minimization Criteria>
CONJUG> Minimization exiting with gradient tolerance ( 0.0100000) satisfied.

> <CHARMm Energy>
50.11394

> <Potential Energy>
50.11394

> <RMS Gradient>
0.00802

> <Bond Energy>
3.87508

> <Angle Energy>
8.80416

> <STRBend>
0.32119

> <Dihedral Energy>
-0.50501

> <OOPLane>
0.03818

> <Van der Waals Energy>
41.11204

> <Electrostatic Energy>
-3.53168

> <Hydrogen Bond Energy>
0

> <Solvation Free Energy>
0

> <HasGasteigerCharges>
true

> <REMARK99>
REMARK  99  MacroMolecule created from Mol2 file
REMARK  99  CHEMBL191060
REMARK  99  PROTEIN
REMARK  99  GASTEIGER
REMARK  99
REMARK  99

$$$$
CHEMBL2042803
  SciTegic05292516403D

 65 69  0  0  0  0            999 V2000
   16.7711    0.0415   -1.4488 O   0  0
   15.6398    0.8451   -1.3008 C   0  0
   15.9662    2.1188   -0.5723 C   0  0  2  0  0  0
   17.2653    1.7044    0.0617 C   0  0
   17.7415    0.5437   -0.5913 C   0  0
   19.0139    0.0112   -0.3541 C   0  0
   19.8020    0.6875    0.6109 C   0  0
   19.2942    1.8010    1.3116 C   0  0
   18.0336    2.3113    1.0294 C   0  0
   17.6371    3.4015    1.7323 O   0  0
   21.0613    0.2133    0.9096 O   0  0
   22.0556    1.2257    1.0629 C   0  0
   19.5242   -1.1660   -1.1534 C   0  0
   20.7095   -1.7210   -0.7292 N   0  0
   21.4519   -2.7614   -1.4102 C   0  0
   22.7732   -2.9426   -0.6853 C   0  0
   23.8377   -2.0094   -0.9282 C   0  0
   25.0054   -2.0941   -0.1394 C   0  0
   25.1069   -3.0814    0.8431 C   0  0
   24.0722   -3.9872    1.0727 C   0  0
   22.8850   -3.9276    0.3371 C   0  0
   21.7250   -4.8648    0.6347 C   0  0
   21.8823   -5.8328    1.8033 C   0  0
   26.0594   -1.1846   -0.3285 C   0  0
   25.9880   -0.1850   -1.2953 C   0  0
   24.8506   -0.0758   -2.0789 C   0  0
   23.7934   -0.9716   -1.8955 C   0  0
   18.9278   -1.5793   -2.1404 O   0  0
   14.7995    2.4888    0.3454 C   0  0
   13.4021    2.2331   -0.1663 C   0  0
   13.2694    1.2743   -1.1124 C   0  0
   14.3841    0.4596   -1.5641 C   0  0
   12.0757    0.9070   -1.6980 O   0  0
   12.1900    2.9913    0.2997 C   0  0
   12.3385    4.0584    1.3501 C   0  0
   11.0831    2.7417   -0.1881 O   0  0
   14.9752    3.0832    1.4122 O   0  0
   16.2088    3.2793   -1.5512 C   0  0
   19.8760    2.2833    2.0925 H   0  0
   16.6563    3.4290    1.7713 H   0  0
   23.0332    0.7545    0.9232 H   0  0
   22.0308    1.6389    2.0757 H   0  0
   21.9549    2.0177    0.3125 H   0  0
   21.1225   -1.3325    0.1127 H   0  0
   20.8379   -3.6660   -1.4270 H   0  0
   21.5853   -2.4916   -2.4625 H   0  0
   26.0066   -3.1597    1.4510 H   0  0
   24.2248   -4.7317    1.8510 H   0  0
   20.8340   -4.2588    0.8385 H   0  0
   21.5325   -5.4637   -0.2637 H   0  0
   20.9733   -6.4331    1.9157 H   0  0
   22.0479   -5.2987    2.7448 H   0  0
   22.7172   -6.5227    1.6419 H   0  0
   26.9605   -1.2571    0.2778 H   0  0
   26.8276    0.4918   -1.4393 H   0  0
   24.7780    0.7033   -2.8329 H   0  0
   22.9174   -0.8354   -2.5266 H   0  0
   14.1800   -0.4987   -2.0321 H   0  0
   11.3342    1.4684   -1.3558 H   0  0
   13.0721    4.8046    1.0345 H   0  0
   12.6154    3.6090    2.3068 H   0  0
   11.3793    4.5695    1.4798 H   0  0
   16.5262    4.1826   -1.0158 H   0  0
   15.2999    3.5391   -2.1066 H   0  0
   16.9877    3.0435   -2.2865 H   0  0
  1  2  1  0
  2  3  1  0
  2 32  2  0
  3  4  1  0
  3 29  1  0
  3 38  1  0
  4  5  2  0
  4  9  1  0
  5  1  1  0
  5  6  1  0
  6  7  2  0
  6 13  1  0
  7  8  1  0
  7 11  1  0
  8  9  2  0
  8 39  1  0
  9 10  1  0
 10 40  1  0
 11 12  1  0
 12 41  1  0
 12 42  1  0
 12 43  1  0
 13 14  1  0
 13 28  2  0
 14 15  1  0
 14 44  1  0
 15 16  1  0
 15 45  1  0
 15 46  1  0
 16 21  1  0
 17 16  2  0
 17 27  1  0
 18 17  1  0
 18 24  1  0
 19 18  2  0
 19 47  1  0
 20 19  1  0
 20 48  1  0
 21 20  2  0
 21 22  1  0
 22 23  1  0
 22 49  1  0
 22 50  1  0
 23 51  1  0
 23 52  1  0
 23 53  1  0
 24 25  2  0
 24 54  1  0
 25 26  1  0
 25 55  1  0
 26 27  2  0
 26 56  1  0
 27 57  1  0
 29 30  1  0
 29 37  2  0
 30 31  2  0
 30 34  1  0
 31 32  1  0
 31 33  1  0
 32 58  1  0
 33 59  1  0
 34 35  1  0
 34 36  2  0
 35 60  1  0
 35 61  1  0
 35 62  1  0
 38 63  1  0
 38 64  1  0
 38 65  1  0
M  END
> <Name>
CHEMBL2042803

> <Clean Energy>
64.024902

> <chembl_id>
CHEMBL2042803

> <chembl_pref_name>
None

> <efficacy>
0.367924528

> <Forcefield>
MMFF

> <ForcefieldBase>
MMFF

> <ForcefieldFFML>
<?xml version="1.0" encoding="UTF-8"?>
<!DOCTYPE ffml SYSTEM "Ffml.dtd">
<ffml version="1.0">
<forcefield name="MMFF" derivedFrom="MMFF" base="MMFF">
<atomTypes>
<atomType
name="O100"
element="O"
mass="16"
annotation=""/>
<atomType
name="C101"
element="C"
mass="12.011"
annotation=""/>
<atomType
name="N102"
element="N"
mass="14.007"
annotation=""/>
<atomType
name="H103"
element="H"
mass="1.008"
annotation=""/>
</atomTypes>
<parameters>
</parameters>
</forcefield>
</ffml>

> <Initial Potential Energy>
315.35365

> <Initial RMS Gradient>
81.49236

> <Minimization Criteria>
STEEPD> Minimization exiting with gradient tolerance ( 3.0000000) satisfied.

> <CHARMm Energy>
64.6313

> <Potential Energy>
64.6313

> <RMS Gradient>
0.08084

> <Bond Energy>
12.22338

> <Angle Energy>
30.3613

> <STRBend>
0.38315

> <Dihedral Energy>
6.19642

> <OOPLane>
0.67166

> <Van der Waals Energy>
85.13276

> <Electrostatic Energy>
-70.33736

> <Hydrogen Bond Energy>
0

> <Solvation Free Energy>
0

> <HasGasteigerCharges>
true

> <REMARK99>
REMARK  99  MacroMolecule created from Mol2 file
REMARK  99  CHEMBL2042803
REMARK  99  PROTEIN
REMARK  99  GASTEIGER
REMARK  99
REMARK  99

$$$$
CHEMBL376325
  SciTegic05292516403D

 52 54  0  0  0  0            999 V2000
   14.4207    0.4140   -2.7015 C   0  0
   13.2909    0.8254   -2.0139 C   0  0
   13.2933    1.7877   -1.0664 N   0  0
   14.4861    2.3711   -0.8067 C   0  0
   15.6819    2.0336   -1.4385 C   0  0
   15.6322    1.0325   -2.4122 C   0  0
   12.1195    0.1628   -2.3191 O   0  0
   10.9450    0.7561   -1.7593 C   0  0
   10.6856    0.2506   -0.3411 C   0  0
    9.4488    0.8410    0.2225 C   0  0
    9.2888    1.9040    1.0829 C   0  0
    7.9491    2.0968    1.2663 O   0  0
    7.3501    1.1276    0.4961 C   0  0
    8.2155    0.3521   -0.1345 N   0  0
    5.8935    1.1165    0.4586 C   0  0
    5.1287    2.0685    1.1495 C   0  0
    3.7359    2.0526    1.0720 C   0  0
    3.0936    1.0839    0.3040 C   0  0
    3.8378    0.1277   -0.3824 C   0  0
    5.2296    0.1440   -0.3041 C   0  0
   10.2086    2.8245    1.7717 C   0  0
   16.9864    2.7019   -1.0883 C   0  0
   17.6281    2.1969    0.2231 C   0  0  2  0  0  0
   18.8681    3.0366    0.4760 C   0  0
   19.1125    3.2904    1.7844 O   0  0
   19.6288    3.4297   -0.3974 O   0  0
   18.0188    0.7093    0.1524 C   0  0
   18.5390    0.1550    1.4731 C   0  0
   14.3542   -0.3701   -3.4471 H   0  0
   14.4476    3.1472   -0.0470 H   0  0
   16.5306    0.7257   -2.9433 H   0  0
   10.9697    1.8528   -1.8198 H   0  0
   10.1127    0.4497   -2.4056 H   0  0
   10.5994   -0.8431   -0.3572 H   0  0
   11.5367    0.4622    0.3150 H   0  0
    5.6156    2.8363    1.7471 H   0  0
    3.1524    2.7972    1.6075 H   0  0
    2.0105    1.0744    0.2383 H   0  0
    3.3365   -0.6285   -0.9806 H   0  0
    5.8015   -0.6055   -0.8486 H   0  0
    9.6787    3.4465    2.4998 H   0  0
   10.6970    3.4856    1.0493 H   0  0
   10.9837    2.2660    2.3053 H   0  0
   17.6887    2.5799   -1.9244 H   0  0
   16.8097    3.7843   -1.0201 H   0  0
   16.9126    2.3582    1.0390 H   0  0
   18.4213    2.9292    2.3748 H   0  0
   17.1484    0.1077   -0.1304 H   0  0
   18.7808    0.5540   -0.6213 H   0  0
   18.6997   -0.9247    1.3882 H   0  0
   17.8218    0.3277    2.2817 H   0  0
   19.4947    0.6085    1.7513 H   0  0
  1  2  2  0
  1 29  1  0
  2  3  1  0
  2  7  1  0
  3  4  2  0
  4  5  1  0
  4 30  1  0
  5  6  2  0
  5 22  1  0
  6  1  1  0
  6 31  1  0
  7  8  1  0
  8  9  1  0
  8 32  1  0
  8 33  1  0
  9 10  1  0
  9 34  1  0
  9 35  1  0
 10 11  2  0
 11 12  1  0
 11 21  1  0
 12 13  1  0
 13 14  2  0
 13 15  1  0
 14 10  1  0
 15 16  2  0
 16 17  1  0
 16 36  1  0
 17 18  2  0
 17 37  1  0
 18 19  1  0
 18 38  1  0
 19 20  2  0
 19 39  1  0
 20 15  1  0
 20 40  1  0
 21 41  1  0
 21 42  1  0
 21 43  1  0
 22 23  1  0
 22 44  1  0
 22 45  1  0
 23 24  1  0
 23 27  1  0
 23 46  1  0
 24 25  1  0
 24 26  2  0
 25 47  1  0
 27 28  1  0
 27 48  1  0
 27 49  1  0
 28 50  1  0
 28 51  1  0
 28 52  1  0
M  END
> <Name>
CHEMBL376325

> <Clean Energy>
40.084702

> <chembl_id>
CHEMBL376325

> <chembl_pref_name>
None

> <efficacy>
1.076086957

> <Forcefield>
MMFF

> <ForcefieldBase>
MMFF

> <ForcefieldFFML>
<?xml version="1.0" encoding="UTF-8"?>
<!DOCTYPE ffml SYSTEM "Ffml.dtd">
<ffml version="1.0">
<forcefield name="MMFF" derivedFrom="MMFF" base="MMFF">
<atomTypes>
<atomType
name="C100"
element="C"
mass="12.011"
annotation=""/>
<atomType
name="N101"
element="N"
mass="14.007"
annotation=""/>
<atomType
name="O102"
element="O"
mass="16"
annotation=""/>
<atomType
name="H103"
element="H"
mass="1.008"
annotation=""/>
</atomTypes>
<parameters>
</parameters>
</forcefield>
</ffml>

> <Initial Potential Energy>
96.90584

> <Initial RMS Gradient>
27.32678

> <Minimization Criteria>
CONJUG> Minimization exiting with gradient tolerance ( 0.0100000) satisfied.

> <CHARMm Energy>
9.59746

> <Potential Energy>
9.59746

> <RMS Gradient>
0.00944

> <Bond Energy>
3.79221

> <Angle Energy>
8.29516

> <STRBend>
0.80238

> <Dihedral Energy>
-5.51521

> <OOPLane>
0.06746

> <Van der Waals Energy>
45.91428

> <Electrostatic Energy>
-43.75882

> <Hydrogen Bond Energy>
0

> <Solvation Free Energy>
0

> <HasGasteigerCharges>
true

> <REMARK99>
REMARK  99  MacroMolecule created from Mol2 file
REMARK  99  CHEMBL376325
REMARK  99  PROTEIN
REMARK  99  GASTEIGER
REMARK  99
REMARK  99

$$$$
CHEMBL3597400
  SciTegic05292516403D

 60 63  0  0  0  0            999 V2000
   -2.2487    0.9536   -0.1374 C   0  0
   -2.4484   -0.4240   -0.2119 C   0  0
   -1.3715   -1.3071   -0.2950 C   0  0
   -0.9457    1.4773   -0.1182 C   0  0
    0.1637    0.6059   -0.1976 C   0  0
   -0.0838   -0.7630   -0.2927 C   0  0
    1.1335   -1.3918   -0.3819 N   0  0
    2.1419   -0.4698   -0.3468 C   0  0
    1.5879    0.7887   -0.2090 C   0  0
    2.3468    2.0797   -0.1151 C   0  0
    3.4727    1.9874    0.8979 C   0  0
    3.0485    1.9726    2.1870 O   0  0
    4.6574    1.8622    0.6092 O   0  0
   -3.4044    1.6925   -0.0834 O   0  0
   -3.2451    3.1012   -0.2210 C   0  0
   -4.6128    3.7715   -0.2269 C   0  0
   -4.4347    5.2739   -0.3893 C   0  0
   -5.6936    5.9324   -0.2480 O   0  0
   -5.5943    7.2593    0.0878 C   0  0
   -6.6685    7.7793    0.8062 C   0  0
   -6.6465    9.1073    1.2271 C   0  0
   -5.5535    9.9195    0.9219 C   0  0
   -4.4783    9.4106    0.1949 C   0  0
   -4.5175    8.0886   -0.2493 C   0  0
   -3.4601   10.2935   -0.0456 O   0  0
   -2.1733    9.7118   -0.3019 C   0  0
   -1.1295   10.8047   -0.2326 C   0  0
    0.0335   10.6197    0.5282 C   0  0
    1.0269   11.6015    0.5688 C   0  0
    0.8845   12.7794   -0.1663 C   0  0
   -0.2787   12.9718   -0.9198 C   0  0
   -1.2751   11.9930   -0.9586 C   0  0
    1.9289   13.8547   -0.0987 C   0  0
   -3.4630   -0.8179   -0.2181 H   0  0
   -1.5374   -2.3773   -0.3658 H   0  0
   -0.7591    2.5411   -0.0531 H   0  0
    1.2552   -2.3910   -0.4696 H   0  0
    3.1747   -0.7911   -0.4122 H   0  0
    2.7819    2.3244   -1.0911 H   0  0
    1.6992    2.9188    0.1602 H   0  0
    2.0811    2.1104    2.2584 H   0  0
   -2.6666    3.4905    0.6260 H   0  0
   -2.7276    3.3296   -1.1615 H   0  0
   -5.2407    3.3685   -1.0307 H   0  0
   -5.1519    3.5446    0.7011 H   0  0
   -3.7291    5.6231    0.3766 H   0  0
   -4.0261    5.4877   -1.3844 H   0  0
   -7.5225    7.1489    1.0452 H   0  0
   -7.4833    9.5103    1.7914 H   0  0
   -5.5434   10.9562    1.2516 H   0  0
   -3.7164    7.7073   -0.8687 H   0  0
   -1.9540    8.9381    0.4447 H   0  0
   -2.1478    9.2764   -1.3078 H   0  0
    0.1781    9.7020    1.0959 H   0  0
    1.9149   11.4248    1.1711 H   0  0
   -0.4192   13.8971   -1.4778 H   0  0
   -2.1731   12.1713   -1.5498 H   0  0
    1.6903   14.5579    0.7052 H   0  0
    1.9860   14.4028   -1.0450 H   0  0
    2.9193   13.4266    0.0887 H   0  0
  1  2  2  0
  1 14  1  0
  2  3  1  0
  2 34  1  0
  3  6  2  0
  3 35  1  0
  4  1  1  0
  4 36  1  0
  5  4  2  0
  5  6  1  0
  6  7  1  0
  7  8  1  0
  7 37  1  0
  8  9  2  0
  8 38  1  0
  9  5  1  0
  9 10  1  0
 10 11  1  0
 10 39  1  0
 10 40  1  0
 11 12  1  0
 11 13  2  0
 12 41  1  0
 14 15  1  0
 15 16  1  0
 15 42  1  0
 15 43  1  0
 16 17  1  0
 16 44  1  0
 16 45  1  0
 17 18  1  0
 17 46  1  0
 17 47  1  0
 18 19  1  0
 19 20  2  0
 20 21  1  0
 20 48  1  0
 21 22  2  0
 21 49  1  0
 22 23  1  0
 22 50  1  0
 23 24  2  0
 23 25  1  0
 24 19  1  0
 24 51  1  0
 25 26  1  0
 26 27  1  0
 26 52  1  0
 26 53  1  0
 27 28  2  0
 28 29  1  0
 28 54  1  0
 29 30  2  0
 29 55  1  0
 30 31  1  0
 30 33  1  0
 31 32  2  0
 31 56  1  0
 32 27  1  0
 32 57  1  0
 33 58  1  0
 33 59  1  0
 33 60  1  0
M  END
> <Name>
CHEMBL3597400

> <Clean Energy>
21.223301

> <chembl_id>
CHEMBL3597400

> <chembl_pref_name>
None

> <efficacy>
1.344

> <Forcefield>
MMFF

> <ForcefieldBase>
MMFF

> <ForcefieldFFML>
<?xml version="1.0" encoding="UTF-8"?>
<!DOCTYPE ffml SYSTEM "Ffml.dtd">
<ffml version="1.0">
<forcefield name="MMFF" derivedFrom="MMFF" base="MMFF">
<atomTypes>
<atomType
name="C100"
element="C"
mass="12.011"
annotation=""/>
<atomType
name="N101"
element="N"
mass="14.007"
annotation=""/>
<atomType
name="O102"
element="O"
mass="16"
annotation=""/>
<atomType
name="H103"
element="H"
mass="1.008"
annotation=""/>
</atomTypes>
<parameters>
</parameters>
</forcefield>
</ffml>

> <Initial Potential Energy>
138.50356

> <Initial RMS Gradient>
28.91574

> <Minimization Criteria>
CONJUG> Minimization exiting with gradient tolerance ( 0.0100000) satisfied.

> <CHARMm Energy>
51.68454

> <Potential Energy>
51.68454

> <RMS Gradient>
0.00949

> <Bond Energy>
5.43374

> <Angle Energy>
17.96833

> <STRBend>
-0.38714

> <Dihedral Energy>
1.40328

> <OOPLane>
0.14531

> <Van der Waals Energy>
65.36664

> <Electrostatic Energy>
-38.24561

> <Hydrogen Bond Energy>
0

> <Solvation Free Energy>
0

> <HasGasteigerCharges>
true

> <REMARK99>
REMARK  99  MacroMolecule created from Mol2 file
REMARK  99  CHEMBL3597400
REMARK  99  PROTEIN
REMARK  99  GASTEIGER
REMARK  99
REMARK  99

$$$$
CHEMBL1813008
  SciTegic05292516403D

 51 53  0  0  0  0            999 V2000
    0.9716    0.3667    0.2527 C   0  0
    0.4996   -0.8384    0.7606 C   0  0
    1.4204   -1.7672    1.2578 C   0  0
    2.7955   -1.4988    1.2589 C   0  0
    3.2774   -0.2815    0.7662 C   0  0
    2.3499    0.6420    0.2590 C   0  0
    4.7612    0.0290    0.7899 C   0  0
    5.5087   -0.3974   -0.4830 C   0  0  1  0  0  0
    5.5399    0.7595   -1.4882 C   0  0
    6.8965   -0.7084   -0.1815 O   0  0
    7.0806   -2.0835    0.1665 C   0  0
    8.5458   -2.3025    0.4867 C   0  0
    4.5527    1.3076   -1.9583 O   0  0
    6.8099    1.1227   -1.8172 O   0  0
   -0.8066   -1.2314    0.8377 O   0  0
   -1.8283   -0.3518    0.3436 C   0  0
   -3.1679   -1.0220    0.6546 C   0  0
   -4.3640   -0.3636    0.0642 C   0  0
   -4.7384    0.9172    0.4197 N   0  0
   -5.8947    1.1248   -0.2002 C   0  0
   -6.2822    0.0532   -0.9703 O   0  0
   -5.3111   -0.8869   -0.7909 C   0  0
   -6.6645    2.3337   -0.0763 C   0  0
   -5.5130   -2.1738   -1.4798 C   0  0
   -6.3982    3.4191    0.7377 C   0  0
   -7.3739    4.4519    0.6172 C   0  0
   -8.3557    4.1236   -0.2893 C   0  0
   -8.1023    2.5796   -0.9794 S   0  0
    0.3011    1.1183   -0.1513 H   0  0
    1.0566   -2.7110    1.6570 H   0  0
    3.4757   -2.2435    1.6649 H   0  0
    2.6862    1.5992   -0.1380 H   0  0
    4.8950    1.1034    0.9747 H   0  0
    5.1992   -0.4582    1.6710 H   0  0
    5.0495   -1.2541   -0.9916 H   0  0
    6.4663   -2.3390    1.0360 H   0  0
    6.7875   -2.7162   -0.6782 H   0  0
    8.7373   -3.3482    0.7435 H   0  0
    8.8556   -1.6716    1.3262 H   0  0
    9.1732   -2.0280   -0.3678 H   0  0
    7.4359    0.5547   -1.3065 H   0  0
   -1.7736    0.6209    0.8468 H   0  0
   -1.7074   -0.2189   -0.7379 H   0  0
   -3.1227   -2.0691    0.3277 H   0  0
   -3.2933   -1.0715    1.7445 H   0  0
   -5.0515   -2.9933   -0.9213 H   0  0
   -5.0675   -2.1445   -2.4788 H   0  0
   -6.5788   -2.3986   -1.5840 H   0  0
   -5.5335    3.4674    1.3893 H   0  0
   -7.3516    5.3853    1.1665 H   0  0
   -9.2117    4.7151   -0.5815 H   0  0
  1  2  2  0
  1 29  1  0
  2  3  1  0
  2 15  1  0
  3  4  2  0
  3 30  1  0
  4  5  1  0
  4 31  1  0
  5  6  2  0
  5  7  1  0
  6  1  1  0
  6 32  1  0
  7  8  1  0
  7 33  1  0
  7 34  1  0
  8  9  1  0
  8 10  1  0
  8 35  1  0
  9 13  2  0
  9 14  1  0
 10 11  1  0
 11 12  1  0
 11 36  1  0
 11 37  1  0
 12 38  1  0
 12 39  1  0
 12 40  1  0
 14 41  1  0
 15 16  1  0
 16 17  1  0
 16 42  1  0
 16 43  1  0
 17 18  1  0
 17 44  1  0
 17 45  1  0
 18 19  1  0
 19 20  2  0
 20 21  1  0
 20 23  1  0
 21 22  1  0
 22 18  2  0
 22 24  1  0
 23 25  2  0
 24 46  1  0
 24 47  1  0
 24 48  1  0
 25 26  1  0
 25 49  1  0
 26 27  2  0
 26 50  1  0
 27 28  1  0
 27 51  1  0
 28 23  1  0
M  END
> <Name>
CHEMBL1813008

> <Clean Energy>
53.351299

> <chembl_id>
CHEMBL1813008

> <chembl_pref_name>
None

> <efficacy>
1.04

> <Forcefield>
MMFF

> <ForcefieldBase>
MMFF

> <ForcefieldFFML>
<?xml version="1.0" encoding="UTF-8"?>
<!DOCTYPE ffml SYSTEM "Ffml.dtd">
<ffml version="1.0">
<forcefield name="MMFF" derivedFrom="MMFF" base="MMFF">
<atomTypes>
<atomType
name="C100"
element="C"
mass="12.011"
annotation=""/>
<atomType
name="O101"
element="O"
mass="16"
annotation=""/>
<atomType
name="N102"
element="N"
mass="14.007"
annotation=""/>
<atomType
name="S103"
element="S"
mass="32.066"
annotation=""/>
<atomType
name="H104"
element="H"
mass="1.008"
annotation=""/>
</atomTypes>
<parameters>
</parameters>
</forcefield>
</ffml>

> <Initial Potential Energy>
138.36071

> <Initial RMS Gradient>
24.57035

> <Minimization Criteria>
STEEPD> Minimization exiting with gradient tolerance ( 3.0000000) satisfied.

> <CHARMm Energy>
59.19608

> <Potential Energy>
59.19608

> <RMS Gradient>
0.14546

> <Bond Energy>
4.21281

> <Angle Energy>
14.74778

> <STRBend>
0.22743

> <Dihedral Energy>
-0.94196

> <OOPLane>
0.0589

> <Van der Waals Energy>
32.16564

> <Electrostatic Energy>
8.72546

> <Hydrogen Bond Energy>
0

> <Solvation Free Energy>
0

> <HasGasteigerCharges>
true

> <REMARK99>
REMARK  99  MacroMolecule created from Mol2 file
REMARK  99  CHEMBL1813008
REMARK  99  PROTEIN
REMARK  99  GASTEIGER
REMARK  99
REMARK  99

$$$$
CHEMBL3318036
  SciTegic05292516403D

 41 43  0  0  0  0            999 V2000
   22.1187   -6.2158    0.1790 C   0  0
   21.8007   -7.5216   -0.1315 C   0  0
   22.8526   -8.3966   -0.2009 C   0  0
   24.1329   -8.0785    0.0114 N   0  0
   24.3516   -6.7903    0.2871 C   0  0
   23.3986   -5.8423    0.3705 N   0  0
   22.5900  -10.0512   -0.5741 Cl  0  0
   26.0259   -6.2985    0.6482 S   0  0
   26.9085   -7.4235   -0.4813 C   0  0
   28.4051   -7.3944   -0.2760 C   0  0
   28.8197   -7.2172    1.0017 O   0  0
   29.2069   -7.6401   -1.1700 O   0  0
   21.0494   -5.2927    0.2547 N   0  0
   20.9966   -3.8882    0.1652 C   0  0
   22.0598   -3.0982   -0.2672 C   0  0
   21.9306   -1.7019   -0.3731 C   0  0
   20.7346   -1.0463   -0.0578 C   0  0
   19.6571   -1.8347    0.3635 C   0  0
   19.7910   -3.2307    0.4701 C   0  0
   20.5878    0.3547   -0.1000 N   0  0
   21.5250    1.4015    0.0140 C   0  0
   22.7689    1.2459    0.6383 C   0  0
   23.6979    2.2913    0.6863 C   0  0
   23.3920    3.5209    0.1118 C   0  0
   22.1593    3.6987   -0.5122 C   0  0
   21.2364    2.6470   -0.5630 C   0  0
   20.7848   -7.8389   -0.3190 H   0  0
   26.5935   -8.4599   -0.3282 H   0  0
   26.6925   -7.1212   -1.5105 H   0  0
   28.0749   -6.9434    1.5780 H   0  0
   20.1972   -5.7127    0.6079 H   0  0
   23.0094   -3.5469   -0.5440 H   0  0
   22.7833   -1.1379   -0.7426 H   0  0
   18.7064   -1.3708    0.6263 H   0  0
   18.9367   -3.8098    0.8063 H   0  0
   19.6299    0.6802   -0.2176 H   0  0
   23.0309    0.3043    1.1162 H   0  0
   24.6586    2.1383    1.1734 H   0  0
   24.1046    4.3442    0.1507 H   0  0
   21.9172    4.6578   -0.9651 H   0  0
   20.2905    2.8115   -1.0722 H   0  0
  1  2  2  0
  1 13  1  0
  2  3  1  0
  2 27  1  0
  3  4  2  0
  3  7  1  0
  4  5  1  0
  5  6  2  0
  5  8  1  0
  6  1  1  0
  8  9  1  0
  9 10  1  0
  9 28  1  0
  9 29  1  0
 10 11  1  0
 10 12  2  0
 11 30  1  0
 13 14  1  0
 13 31  1  0
 14 15  2  0
 15 16  1  0
 15 32  1  0
 16 17  2  0
 16 33  1  0
 17 18  1  0
 17 20  1  0
 18 19  2  0
 18 34  1  0
 19 14  1  0
 19 35  1  0
 20 21  1  0
 20 36  1  0
 21 22  2  0
 22 23  1  0
 22 37  1  0
 23 24  2  0
 23 38  1  0
 24 25  1  0
 24 39  1  0
 25 26  2  0
 25 40  1  0
 26 21  1  0
 26 41  1  0
M  END
> <Name>
CHEMBL3318036

> <Clean Energy>
6.25395

> <chembl_id>
CHEMBL3318036

> <chembl_pref_name>
None

> <efficacy>
1.358024691

> <Forcefield>
MMFF

> <ForcefieldBase>
MMFF

> <ForcefieldFFML>
<?xml version="1.0" encoding="UTF-8"?>
<!DOCTYPE ffml SYSTEM "Ffml.dtd">
<ffml version="1.0">
<forcefield name="MMFF" derivedFrom="MMFF" base="MMFF">
<atomTypes>
<atomType
name="C100"
element="C"
mass="12.011"
annotation=""/>
<atomType
name="N101"
element="N"
mass="14.007"
annotation=""/>
<atomType
name="Cl102"
element="Cl"
mass="35.453"
annotation=""/>
<atomType
name="S103"
element="S"
mass="32.066"
annotation=""/>
<atomType
name="O104"
element="O"
mass="16"
annotation=""/>
<atomType
name="H105"
element="H"
mass="1.008"
annotation=""/>
</atomTypes>
<parameters>
</parameters>
</forcefield>
</ffml>

> <Initial Potential Energy>
56.48685

> <Initial RMS Gradient>
48.03378

> <Minimization Criteria>
CONJUG> Minimization exiting with gradient tolerance ( 0.0100000) satisfied.

> <CHARMm Energy>
-85.55186

> <Potential Energy>
-85.55186

> <RMS Gradient>
0.00946

> <Bond Energy>
3.96345

> <Angle Energy>
13.05906

> <STRBend>
0.10151

> <Dihedral Energy>
19.73488

> <OOPLane>
0.61176

> <Van der Waals Energy>
50.58503

> <Electrostatic Energy>
-173.60755

> <Hydrogen Bond Energy>
0

> <Solvation Free Energy>
0

> <HasGasteigerCharges>
true

> <REMARK99>
REMARK  99  MacroMolecule created from Mol2 file
REMARK  99  CHEMBL3318036
REMARK  99  PROTEIN
REMARK  99  GASTEIGER
REMARK  99
REMARK  99

$$$$
CHEMBL455853
  SciTegic05292516403D

 61 65  0  0  0  0            999 V2000
    5.6809   -0.6273   -1.3279 C   0  0
    5.5415   -1.7468   -0.5039 C   0  0
    6.6203   -2.1882    0.2622 C   0  0
    6.8818    0.0884   -1.3429 C   0  0
    7.9553   -0.3332   -0.5561 C   0  0
    7.8127   -1.4725    0.2322 C   0  0
    8.8642   -1.9152    1.0597 O   0  0
   10.1591   -1.4120    0.9252 C   0  0
   10.3856   -0.5428   -0.2806 C   0  0  1  0  0  0
    9.2374    0.4307   -0.4901 C   0  0
   11.6595    0.2427   -0.1416 C   0  0
   12.7030   -0.4443   -0.6785 O   0  0
   11.7318    1.3505    0.3746 O   0  0
   13.9714    0.2004   -0.5254 C   0  0
   11.0611   -1.7457    1.6927 O   0  0
    4.3954   -2.4867   -0.4080 O   0  0
    3.1795   -1.7273   -0.4263 C   0  0
    2.1919   -2.4320    0.4922 C   0  0
    0.9293   -1.6759    0.6692 C   0  0
    0.6903   -0.5180    1.3778 C   0  0
   -0.6395   -0.2313    1.2748 O   0  0
   -1.1549   -1.2511    0.5147 C   0  0
   -0.2459   -2.1191    0.1080 N   0  0
    1.5133    0.4084    2.1732 C   0  0
   -2.5895   -1.2543    0.2837 C   0  0
   -3.4326   -0.2780    0.8261 C   0  0
   -4.8126   -0.3383    0.6161 C   0  0
   -5.3810   -1.3739   -0.1402 C   0  0
   -4.5308   -2.3412   -0.6936 C   0  0
   -3.1524   -2.2816   -0.4843 C   0  0
   -6.8311   -1.4562   -0.3338 C   0  0
   -7.5483   -0.3836   -0.8852 C   0  0
   -8.9285   -0.4683   -1.0661 C   0  0
   -9.6083   -1.6257   -0.6954 C   0  0
   -8.9140   -2.6996   -0.1451 C   0  0
   -7.5341   -2.6153    0.0332 C   0  0
    4.8675   -0.2979   -1.9675 H   0  0
    6.5176   -3.0664    0.8924 H   0  0
    6.9661    0.9732   -1.9701 H   0  0
   10.4731   -1.2014   -1.1555 H   0  0
    9.3952    0.9998   -1.4149 H   0  0
    9.1622    1.1535    0.3326 H   0  0
   14.7349   -0.4461   -0.9662 H   0  0
   14.2034    0.3397    0.5351 H   0  0
   13.9781    1.1584   -1.0542 H   0  0
    3.3401   -0.7015   -0.0695 H   0  0
    2.7980   -1.6883   -1.4533 H   0  0
    1.9797   -3.4335    0.0973 H   0  0
    2.6558   -2.6004    1.4725 H   0  0
    0.9675    0.7545    3.0563 H   0  0
    1.7881    1.2817    1.5741 H   0  0
    2.4333   -0.0758    2.5146 H   0  0
   -3.0275    0.5309    1.4297 H   0  0
   -5.4467    0.4218    1.0677 H   0  0
   -4.9376   -3.1510   -1.2960 H   0  0
   -2.5128   -3.0500   -0.9173 H   0  0
   -7.0329    0.5247   -1.1888 H   0  0
   -9.4738    0.3667   -1.4986 H   0  0
  -10.6818   -1.6914   -0.8363 H   0  0
   -9.4482   -3.6002    0.1462 H   0  0
   -7.0056   -3.4588    0.4735 H   0  0
  1  2  2  0
  1 37  1  0
  2  3  1  0
  2 16  1  0
  3  6  2  0
  3 38  1  0
  4  1  1  0
  4 39  1  0
  5  4  2  0
  5  6  1  0
  5 10  1  0
  6  7  1  0
  7  8  1  0
  8  9  1  0
  8 15  2  0
  9 10  1  0
  9 11  1  0
  9 40  1  0
 10 41  1  0
 10 42  1  0
 11 12  1  0
 11 13  2  0
 12 14  1  0
 14 43  1  0
 14 44  1  0
 14 45  1  0
 16 17  1  0
 17 18  1  0
 17 46  1  0
 17 47  1  0
 18 19  1  0
 18 48  1  0
 18 49  1  0
 19 20  2  0
 20 21  1  0
 20 24  1  0
 21 22  1  0
 22 23  2  0
 22 25  1  0
 23 19  1  0
 24 50  1  0
 24 51  1  0
 24 52  1  0
 25 26  2  0
 26 27  1  0
 26 53  1  0
 27 28  2  0
 27 54  1  0
 28 29  1  0
 28 31  1  0
 29 30  2  0
 29 55  1  0
 30 25  1  0
 30 56  1  0
 31 32  2  0
 32 33  1  0
 32 57  1  0
 33 34  2  0
 33 58  1  0
 34 35  1  0
 34 59  1  0
 35 36  2  0
 35 60  1  0
 36 31  1  0
 36 61  1  0
M  END
> <Name>
CHEMBL455853

> <Clean Energy>
34.440102

> <chembl_id>
CHEMBL455853

> <chembl_pref_name>
None

> <efficacy>
1.64

> <Forcefield>
MMFF

> <ForcefieldBase>
MMFF

> <ForcefieldFFML>
<?xml version="1.0" encoding="UTF-8"?>
<!DOCTYPE ffml SYSTEM "Ffml.dtd">
<ffml version="1.0">
<forcefield name="MMFF" derivedFrom="MMFF" base="MMFF">
<atomTypes>
<atomType
name="C100"
element="C"
mass="12.011"
annotation=""/>
<atomType
name="O101"
element="O"
mass="16"
annotation=""/>
<atomType
name="N102"
element="N"
mass="14.007"
annotation=""/>
<atomType
name="H103"
element="H"
mass="1.008"
annotation=""/>
</atomTypes>
<parameters>
</parameters>
</forcefield>
</ffml>

> <Initial Potential Energy>
135.93169

> <Initial RMS Gradient>
29.14471

> <Minimization Criteria>
STEEPD> Minimization exiting with gradient tolerance ( 3.0000000) satisfied.

> <CHARMm Energy>
41.49209

> <Potential Energy>
41.49209

> <RMS Gradient>
0.05446

> <Bond Energy>
5.98359

> <Angle Energy>
16.93228

> <STRBend>
-0.98458

> <Dihedral Energy>
9.1047

> <OOPLane>
0.23409

> <Van der Waals Energy>
67.38513

> <Electrostatic Energy>
-57.16311

> <Hydrogen Bond Energy>
0

> <Solvation Free Energy>
0

> <HasGasteigerCharges>
true

> <REMARK99>
REMARK  99  MacroMolecule created from Mol2 file
REMARK  99  CHEMBL455853
REMARK  99  PROTEIN
REMARK  99  GASTEIGER
REMARK  99
REMARK  99

$$$$
CHEMBL4096160
  SciTegic05292516403D

 64 68  0  0  0  0            999 V2000
    2.0557   -2.3913    0.2927 C   0  0
    2.1738   -3.6907    0.8155 C   0  0
    3.4069   -4.2369    1.1940 C   0  0
    3.2195   -1.6167    0.1347 C   0  0
    4.4653   -2.1462    0.5070 C   0  0
    4.5386   -3.4306    1.0303 C   0  0
    5.8780   -3.6069    1.3093 N   0  0
    6.5434   -2.4411    0.9745 C   0  0
    5.7049   -1.5676    0.4534 N   0  0
    8.0138   -2.2239    1.1645 C   0  0
    8.3981   -0.7426    1.1578 C   0  0
    9.8952   -0.5603    1.3587 C   0  0
    6.4422   -4.7870    1.9516 C   0  0
    7.6115   -5.3888    1.2108 C   0  0
    7.5797   -5.6007   -0.1733 C   0  0
    8.7048   -6.1004   -0.8368 C   0  0
    9.8771   -6.4234   -0.1345 C   0  0
    9.8809   -6.2709    1.2590 C   0  0
    8.7632   -5.7594    1.9231 C   0  0
   11.0667   -6.9187   -0.8459 C   0  0
   11.0004   -8.1929   -1.4453 C   0  0
   12.0870   -8.7302   -2.1364 C   0  0
   13.2713   -8.0113   -2.2350 C   0  0
   13.3709   -6.7533   -1.6440 C   0  0
   12.2786   -6.1974   -0.9522 C   0  0
    0.7400   -1.8447   -0.0706 C   0  0
    0.5179   -1.2689   -1.3321 C   0  0
   -0.7274   -0.7361   -1.6785 C   0  0
   -1.7753   -0.7730   -0.7638 C   0  0
   -1.5721   -1.3471    0.4913 C   0  0
   -0.3284   -1.8762    0.8367 C   0  0
   12.4236   -4.8253   -0.3911 C   0  0
   13.7025   -4.5421   -0.0700 O   0  0
   11.5482   -4.0032   -0.2016 O   0  0
   -3.0345   -0.2920   -0.9666 O   0  0
   -3.2953    0.3639   -2.2025 C   0  0
    1.2793   -4.3044    0.9315 H   0  0
    3.4636   -5.2419    1.5962 H   0  0
    3.1763   -0.6035   -0.2513 H   0  0
    8.3312   -2.6605    2.1186 H   0  0
    8.5552   -2.7369    0.3611 H   0  0
    8.1072   -0.2791    0.2074 H   0  0
    7.8597   -0.2107    1.9516 H   0  0
   10.1530    0.5032    1.3494 H   0  0
   10.4614   -1.0537    0.5622 H   0  0
   10.2165   -0.9796    2.3175 H   0  0
    6.7288   -4.4691    2.9611 H   0  0
    5.6656   -5.5508    2.0528 H   0  0
    6.6973   -5.3395   -0.7559 H   0  0
    8.6685   -6.2117   -1.9189 H   0  0
   10.7679   -6.5289    1.8350 H   0  0
    8.8076   -5.6247    3.0016 H   0  0
   10.0893   -8.7850   -1.3703 H   0  0
   11.9997   -9.7098   -2.5967 H   0  0
   14.1162   -8.4225   -2.7768 H   0  0
   14.3040   -6.2015   -1.7402 H   0  0
    1.3248   -1.2392   -2.0631 H   0  0
   -0.8398   -0.3051   -2.6668 H   0  0
   -2.3863   -1.3778    1.2104 H   0  0
   -0.1963   -2.3015    1.8290 H   0  0
   13.6370   -3.6321    0.2895 H   0  0
   -4.3370    0.6985   -2.1898 H   0  0
   -3.1756   -0.3244   -3.0453 H   0  0
   -2.6604    1.2482   -2.3201 H   0  0
  1  2  2  0
  1 26  1  0
  2  3  1  0
  2 37  1  0
  3  6  2  0
  3 38  1  0
  4  1  1  0
  4 39  1  0
  5  4  2  0
  5  6  1  0
  6  7  1  0
  7  8  1  0
  7 13  1  0
  8  9  2  0
  8 10  1  0
  9  5  1  0
 10 11  1  0
 10 40  1  0
 10 41  1  0
 11 12  1  0
 11 42  1  0
 11 43  1  0
 12 44  1  0
 12 45  1  0
 12 46  1  0
 13 14  1  0
 13 47  1  0
 13 48  1  0
 14 15  2  0
 15 16  1  0
 15 49  1  0
 16 17  2  0
 16 50  1  0
 17 18  1  0
 17 20  1  0
 18 19  2  0
 18 51  1  0
 19 14  1  0
 19 52  1  0
 20 21  2  0
 21 22  1  0
 21 53  1  0
 22 23  2  0
 22 54  1  0
 23 24  1  0
 23 55  1  0
 24 25  2  0
 24 56  1  0
 25 20  1  0
 25 32  1  0
 26 27  2  0
 27 28  1  0
 27 57  1  0
 28 29  2  0
 28 58  1  0
 29 30  1  0
 29 35  1  0
 30 31  2  0
 30 59  1  0
 31 26  1  0
 31 60  1  0
 32 33  1  0
 32 34  2  0
 33 61  1  0
 35 36  1  0
 36 62  1  0
 36 63  1  0
 36 64  1  0
M  END
> <Name>
CHEMBL4096160

> <Clean Energy>
51.182999

> <chembl_id>
CHEMBL4096160

> <chembl_pref_name>
None

> <efficacy>
1.038936372

> <Forcefield>
MMFF

> <ForcefieldBase>
MMFF

> <ForcefieldFFML>
<?xml version="1.0" encoding="UTF-8"?>
<!DOCTYPE ffml SYSTEM "Ffml.dtd">
<ffml version="1.0">
<forcefield name="MMFF" derivedFrom="MMFF" base="MMFF">
<atomTypes>
<atomType
name="C100"
element="C"
mass="12.011"
annotation=""/>
<atomType
name="N101"
element="N"
mass="14.007"
annotation=""/>
<atomType
name="O102"
element="O"
mass="16"
annotation=""/>
<atomType
name="H103"
element="H"
mass="1.008"
annotation=""/>
</atomTypes>
<parameters>
</parameters>
</forcefield>
</ffml>

> <Initial Potential Energy>
296.22501

> <Initial RMS Gradient>
37.22277

> <Minimization Criteria>
STEEPD> Minimization exiting with gradient tolerance ( 3.0000000) satisfied.

> <CHARMm Energy>
87.80663

> <Potential Energy>
87.80663

> <RMS Gradient>
0.12678

> <Bond Energy>
8.99635

> <Angle Energy>
16.92856

> <STRBend>
-0.828

> <Dihedral Energy>
10.41668

> <OOPLane>
0.04482

> <Van der Waals Energy>
76.28001

> <Electrostatic Energy>
-24.03178

> <Hydrogen Bond Energy>
0

> <Solvation Free Energy>
0

> <HasGasteigerCharges>
true

> <REMARK99>
REMARK  99  MacroMolecule created from Mol2 file
REMARK  99  CHEMBL4096160
REMARK  99  PROTEIN
REMARK  99  GASTEIGER
REMARK  99
REMARK  99

$$$$
CHEMBL1935613
  SciTegic05292516403D

 71 73  0  0  0  0            999 V2000
   23.5860   -7.5769   -0.1087 N   0  0
   24.8099   -8.0597    0.3578 C   0  0
   26.0719   -7.6191   -0.3687 C   0  0
   24.8472   -8.8092    1.3332 O   0  0
   27.3402   -8.1432    0.3066 C   0  0
   28.5733   -7.7245   -0.4466 C   0  0
   29.5101   -6.9065    0.0486 C   0  0
   18.5425   -6.6782   -0.8542 C   0  0
   18.6278   -7.3013    0.3879 C   0  0
   19.8840   -7.7360    0.8420 C   0  0
   19.6904   -6.5037   -1.6344 C   0  0
   20.9416   -6.9385   -1.1783 C   0  0
   21.0531   -7.5560    0.0720 C   0  0
   22.3777   -8.1067    0.5512 C   0  0
   23.4275   -6.6165   -1.2276 C   0  0  1  0  0  0
   22.1577   -6.8213   -2.0513 C   0  0
   23.5558   -5.1530   -0.7723 C   0  0
   23.7405   -4.9963    0.5602 O   0  0
   23.5968   -4.2056   -1.5471 O   0  0
   17.5706   -7.5574    1.2253 O   0  0
   16.2780   -7.0649    0.8320 C   0  0
   15.2599   -7.4097    1.9241 C   0  0
   13.9486   -6.7204    1.7565 C   0  0
   13.6419   -5.3890    1.9102 C   0  0
   12.3092   -5.2369    1.6814 O   0  0
   11.8145   -6.5058    1.4235 C   0  0
   12.7913   -7.4101    1.4485 N   0  0
   14.4020   -4.1745    2.2510 C   0  0
   10.4321   -6.7228    1.1634 C   0  0
    9.9381   -7.9483    0.9258 C   0  0
    8.4890   -8.2293    0.6501 C   0  0
    8.2974   -8.8232   -0.7491 C   0  0
    6.8489   -9.2630   -1.0346 C   0  0
    6.7815   -9.9810   -2.3850 C   0  0
    5.8688   -8.0890   -1.0261 C   0  0
   26.0227   -7.9971   -1.3967 H   0  0
   26.1001   -6.5243   -0.3988 H   0  0
   27.3801   -7.7895    1.3446 H   0  0
   27.3170   -9.2389    0.3524 H   0  0
   28.6986   -8.1294   -1.4485 H   0  0
   29.4293   -6.4832    1.0454 H   0  0
   30.3849   -6.6422   -0.5380 H   0  0
   17.5986   -6.3299   -1.2591 H   0  0
   19.9432   -8.2399    1.8060 H   0  0
   19.5929   -6.0346   -2.6123 H   0  0
   22.4815   -7.9108    1.6259 H   0  0
   22.3785   -9.1946    0.4087 H   0  0
   24.2775   -6.7594   -1.9035 H   0  0
   22.2423   -7.7512   -2.6282 H   0  0
   22.0328   -6.0017   -2.7692 H   0  0
   23.5026   -5.8214    1.0341 H   0  0
   16.3325   -5.9772    0.7020 H   0  0
   15.9684   -7.5304   -0.1118 H   0  0
   15.1132   -8.4966    1.9479 H   0  0
   15.6770   -7.1511    2.9059 H   0  0
   13.8171   -3.5191    2.9039 H   0  0
   14.6563   -3.6187    1.3435 H   0  0
   15.3315   -4.4246    2.7714 H   0  0
    9.7913   -5.8489    1.1638 H   0  0
   10.6074   -8.8087    0.9350 H   0  0
    8.1235   -8.9339    1.4065 H   0  0
    7.9005   -7.3113    0.7558 H   0  0
    8.6180   -8.0931   -1.5042 H   0  0
    8.9572   -9.6943   -0.8598 H   0  0
    6.5383   -9.9755   -0.2600 H   0  0
    5.7652  -10.3354   -2.5874 H   0  0
    7.4453  -10.8519   -2.3966 H   0  0
    7.0786   -9.3167   -3.2037 H   0  0
    4.8621   -8.4219   -1.3012 H   0  0
    6.1731   -7.3125   -1.7360 H   0  0
    5.7980   -7.6355   -0.0330 H   0  0
  1  2  1  0
  1 15  1  0
  2  3  1  0
  2  4  2  0
  3  5  1  0
  3 36  1  0
  3 37  1  0
  5  6  1  0
  5 38  1  0
  5 39  1  0
  6  7  2  0
  6 40  1  0
  7 41  1  0
  7 42  1  0
  8  9  2  0
  8 43  1  0
  9 10  1  0
  9 20  1  0
 10 13  2  0
 10 44  1  0
 11  8  1  0
 11 45  1  0
 12 11  2  0
 12 13  1  0
 12 16  1  0
 13 14  1  0
 14  1  1  0
 14 46  1  0
 14 47  1  0
 15 16  1  0
 15 17  1  0
 15 48  1  0
 16 49  1  0
 16 50  1  0
 17 18  1  0
 17 19  2  0
 18 51  1  0
 20 21  1  0
 21 22  1  0
 21 52  1  0
 21 53  1  0
 22 23  1  0
 22 54  1  0
 22 55  1  0
 23 24  2  0
 24 25  1  0
 24 28  1  0
 25 26  1  0
 26 27  2  0
 26 29  1  0
 27 23  1  0
 28 56  1  0
 28 57  1  0
 28 58  1  0
 29 30  2  0
 29 59  1  0
 30 31  1  0
 30 60  1  0
 31 32  1  0
 31 61  1  0
 31 62  1  0
 32 33  1  0
 32 63  1  0
 32 64  1  0
 33 34  1  0
 33 35  1  0
 33 65  1  0
 34 66  1  0
 34 67  1  0
 34 68  1  0
 35 69  1  0
 35 70  1  0
 35 71  1  0
M  END
> <Name>
CHEMBL1935613

> <Clean Energy>
61.016399

> <chembl_id>
CHEMBL1935613

> <chembl_pref_name>
None

> <efficacy>
1.105263158

> <Forcefield>
MMFF

> <ForcefieldBase>
MMFF

> <ForcefieldFFML>
<?xml version="1.0" encoding="UTF-8"?>
<!DOCTYPE ffml SYSTEM "Ffml.dtd">
<ffml version="1.0">
<forcefield name="MMFF" derivedFrom="MMFF" base="MMFF">
<atomTypes>
<atomType
name="N100"
element="N"
mass="14.007"
annotation=""/>
<atomType
name="C101"
element="C"
mass="12.011"
annotation=""/>
<atomType
name="O102"
element="O"
mass="16"
annotation=""/>
<atomType
name="H103"
element="H"
mass="1.008"
annotation=""/>
</atomTypes>
<parameters>
</parameters>
</forcefield>
</ffml>

> <Initial Potential Energy>
131.04949

> <Initial RMS Gradient>
20.64679

> <Minimization Criteria>
CONJUG> Minimization exiting with gradient tolerance ( 0.0100000) satisfied.

> <CHARMm Energy>
37.36455

> <Potential Energy>
37.36455

> <RMS Gradient>
0.00813

> <Bond Energy>
7.16027

> <Angle Energy>
18.63965

> <STRBend>
0.32011

> <Dihedral Energy>
-12.64777

> <OOPLane>
0.30483

> <Van der Waals Energy>
51.24958

> <Electrostatic Energy>
-27.66212

> <Hydrogen Bond Energy>
0

> <Solvation Free Energy>
0

> <HasGasteigerCharges>
true

> <REMARK99>
REMARK  99  MacroMolecule created from Mol2 file
REMARK  99  CHEMBL1935613
REMARK  99  PROTEIN
REMARK  99  GASTEIGER
REMARK  99
REMARK  99

$$$$
CHEMBL446893
  SciTegic05292516403D

 48 49  0  0  0  0            999 V2000
   -0.5484   -1.7012   -0.1911 C   0  0
   11.2413    0.5753   -0.8525 C   0  0
   -1.7255   -1.4841   -0.2890 C   0  0
   10.0782   -0.2798   -0.3298 C   0  0  2  0  0  0
    0.8443   -1.9454   -0.0667 C   0  0
   12.4379    0.3501   -0.7696 O   0  0
    9.3439    0.5047    0.7722 C   0  0
    1.5987   -1.2240    0.7737 C   0  0
    7.8468    0.2802    0.7331 C   0  0
   -3.1269   -1.2207   -0.3927 C   0  0
   10.8077    1.6759   -1.5093 O   0  0
    5.0626   -0.1348    0.6477 C   0  0
   10.4919   -1.5310    0.2320 O   0  0
    7.2885   -0.9128    1.2092 C   0  0
    6.9997    1.2604    0.2041 C   0  0
    5.9038   -1.1192    1.1672 C   0  0
    5.6195    1.0520    0.1672 C   0  0
    3.6991   -0.1967    0.5566 O   0  0
    3.0735   -1.4119    0.9555 C   0  0
   10.8560   -2.4914   -0.7566 C   0  0
   -3.5807    0.0824   -0.6120 C   0  0
   -4.0442   -2.2666   -0.2682 C   0  0
   11.2904   -3.7587   -0.0471 C   0  0
   -5.4119   -2.0087   -0.3619 C   0  0
   -4.9490    0.3393   -0.7054 C   0  0
   -5.8621   -0.7065   -0.5799 C   0  0
    9.4146   -0.4745   -1.1831 H   0  0
    1.2790   -2.7267   -0.6829 H   0  0
    9.7095    0.2108    1.7652 H   0  0
    9.5306    1.5832    0.6957 H   0  0
    1.1415   -0.4399    1.3742 H   0  0
   11.6346    2.1143   -1.8012 H   0  0
    7.9347   -1.6885    1.6188 H   0  0
    7.4032    2.1946   -0.1799 H   0  0
    5.5149   -2.0560    1.5520 H   0  0
    4.9662    1.8205   -0.2402 H   0  0
    3.4398   -2.2460    0.3450 H   0  0
    3.2682   -1.6137    2.0153 H   0  0
    9.9937   -2.7042   -1.3980 H   0  0
   11.6770   -2.1147   -1.3742 H   0  0
   -2.8716    0.9012   -0.7086 H   0  0
   -3.6947   -3.2815   -0.0958 H   0  0
   11.5711   -4.5325   -0.7669 H   0  0
   10.4843   -4.1414    0.5874 H   0  0
   12.1444   -3.5592    0.6088 H   0  0
   -6.1262   -2.8218   -0.2640 H   0  0
   -5.3012    1.3534   -0.8747 H   0  0
   -6.9274   -0.5055   -0.6516 H   0  0
  2  4  1  0
  3  1  3  0
  4  7  1  0
  4 13  1  0
  4 27  1  0
  5  1  1  0
  5 28  1  0
  6  2  2  0
  7  9  1  0
  7 29  1  0
  7 30  1  0
  8  5  2  0
  8 31  1  0
  9 15  1  0
 10  3  1  0
 11  2  1  0
 11 32  1  0
 12 18  1  0
 14  9  2  0
 14 16  1  0
 14 33  1  0
 15 17  2  0
 15 34  1  0
 16 12  2  0
 16 35  1  0
 17 12  1  0
 17 36  1  0
 18 19  1  0
 19  8  1  0
 19 37  1  0
 19 38  1  0
 20 13  1  0
 20 39  1  0
 20 40  1  0
 21 10  2  0
 21 41  1  0
 22 10  1  0
 22 42  1  0
 23 20  1  0
 23 43  1  0
 23 44  1  0
 23 45  1  0
 24 22  2  0
 24 46  1  0
 25 21  1  0
 25 26  2  0
 25 47  1  0
 26 24  1  0
 26 48  1  0
M  END
> <Name>
CHEMBL446893

> <Clean Energy>
65.222801

> <chembl_id>
CHEMBL446893

> <chembl_pref_name>
None

> <efficacy>
0.97

> <Forcefield>
MMFF

> <ForcefieldBase>
MMFF

> <ForcefieldFFML>
<?xml version="1.0" encoding="UTF-8"?>
<!DOCTYPE ffml SYSTEM "Ffml.dtd">
<ffml version="1.0">
<forcefield name="MMFF" derivedFrom="MMFF" base="MMFF">
<atomTypes>
<atomType
name="C100"
element="C"
mass="12.011"
annotation=""/>
<atomType
name="O101"
element="O"
mass="16"
annotation=""/>
<atomType
name="H102"
element="H"
mass="1.008"
annotation=""/>
</atomTypes>
<parameters>
</parameters>
</forcefield>
</ffml>

> <Initial Potential Energy>
236.72029

> <Initial RMS Gradient>
27.15038

> <Minimization Criteria>
STEEPD> Minimization exiting with gradient tolerance ( 3.0000000) satisfied.

> <CHARMm Energy>
57.4821

> <Potential Energy>
57.4821

> <RMS Gradient>
0.05706

> <Bond Energy>
3.86243

> <Angle Energy>
11.63467

> <STRBend>
0.17489

> <Dihedral Energy>
-1.31941

> <OOPLane>
0.03379

> <Van der Waals Energy>
42.3369

> <Electrostatic Energy>
0.75883

> <Hydrogen Bond Energy>
0

> <Solvation Free Energy>
0

> <HasGasteigerCharges>
true

> <REMARK99>
REMARK  99  MacroMolecule created from Mol2 file
REMARK  99  CHEMBL446893
REMARK  99  PROTEIN
REMARK  99  GASTEIGER
REMARK  99
REMARK  99

$$$$
CHEMBL1819391
  SciTegic05292516403D

 65 67  0  0  0  0            999 V2000
    3.9158  -16.5177    1.8533 C   0  0
    3.5674  -15.8462    0.6822 C   0  0
    4.5603  -15.3525   -0.1595 C   0  0
    5.9019  -15.5316    0.1712 C   0  0
    6.2615  -16.2049    1.3482 C   0  0
    5.2572  -16.6989    2.1880 C   0  0
    7.7159  -16.4296    1.6710 C   0  0
    8.2238  -17.7559    1.1053 C   0  0
    9.6467  -17.8003    1.2861 O   0  0
   10.2360  -18.7582    0.5049 C   0  0
    9.8930  -20.1075    0.5891 C   0  0
   10.5443  -21.0329   -0.2271 C   0  0
   11.5590  -20.6146   -1.0913 C   0  0
   11.9144  -19.2651   -1.1623 C   0  0
   11.2525  -18.3374   -0.3516 C   0  0
   12.9513  -18.8315   -2.1005 C   0  0
   14.1839  -18.4206   -1.7432 C   0  0
   15.1042  -17.9782   -2.8207 C   0  0
   14.5472  -17.0419   -3.6220 O   0  0
   16.2637  -18.3431   -2.9255 O   0  0
   14.7668  -18.4340   -0.3532 C   0  0
   14.9016  -17.0220    0.2252 C   0  0
   15.4687  -17.0592    1.6447 C   0  0
   15.6191  -15.6608    2.2223 C   0  0
   10.2897  -22.3775   -0.2195 O   0  0
    8.9086  -22.7206   -0.0627 C   0  0
    8.7137  -24.1427   -0.5878 C   0  0
    7.2537  -24.4844   -0.7318 C   0  0
    6.5514  -24.0733   -1.8749 C   0  0
    5.1948  -24.3607   -2.0124 C   0  0
    4.5271  -25.0606   -1.0088 C   0  0
    5.2160  -25.4668    0.1327 C   0  0
    6.5749  -25.1791    0.2738 C   0  0
    3.1372  -16.8949    2.5118 H   0  0
    2.5191  -15.6980    0.4332 H   0  0
    4.2880  -14.8207   -1.0681 H   0  0
    6.6717  -15.1417   -0.4939 H   0  0
    5.5045  -17.2221    3.1090 H   0  0
    8.3184  -15.6006    1.2770 H   0  0
    7.8744  -16.4007    2.7565 H   0  0
    7.7520  -18.5908    1.6377 H   0  0
    7.9739  -17.8289    0.0377 H   0  0
    9.1473  -20.4290    1.3068 H   0  0
   12.0695  -21.3523   -1.7077 H   0  0
   11.5136  -17.2829   -0.3848 H   0  0
   12.6562  -18.8799   -3.1479 H   0  0
   13.6366  -16.8051   -3.3559 H   0  0
   14.1583  -19.0464    0.3224 H   0  0
   15.7516  -18.9184   -0.3753 H   0  0
   15.5579  -16.4164   -0.4121 H   0  0
   13.9223  -16.5277    0.2357 H   0  0
   14.8099  -17.6482    2.2937 H   0  0
   16.4466  -17.5545    1.6416 H   0  0
   16.0340  -15.7103    3.2338 H   0  0
   14.6512  -15.1524    2.2772 H   0  0
   16.2923  -15.0530    1.6094 H   0  0
    8.6338  -22.6767    0.9981 H   0  0
    8.2752  -22.0228   -0.6265 H   0  0
    9.2142  -24.2594   -1.5581 H   0  0
    9.2164  -24.8569    0.0765 H   0  0
    7.0664  -23.5262   -2.6637 H   0  0
    4.6550  -24.0513   -2.9035 H   0  0
    3.4721  -25.2999   -1.1192 H   0  0
    4.6960  -26.0216    0.9102 H   0  0
    7.0906  -25.5240    1.1681 H   0  0
  1  2  2  0
  1 34  1  0
  2  3  1  0
  2 35  1  0
  3  4  2  0
  3 36  1  0
  4  5  1  0
  4 37  1  0
  5  6  2  0
  5  7  1  0
  6  1  1  0
  6 38  1  0
  7  8  1  0
  7 39  1  0
  7 40  1  0
  8  9  1  0
  8 41  1  0
  8 42  1  0
  9 10  1  0
 10 11  2  0
 11 12  1  0
 11 43  1  0
 12 13  2  0
 12 25  1  0
 13 14  1  0
 13 44  1  0
 14 15  2  0
 14 16  1  0
 15 10  1  0
 15 45  1  0
 16 17  2  0
 16 46  1  0
 17 18  1  0
 17 21  1  0
 18 19  1  0
 18 20  2  0
 19 47  1  0
 21 22  1  0
 21 48  1  0
 21 49  1  0
 22 23  1  0
 22 50  1  0
 22 51  1  0
 23 24  1  0
 23 52  1  0
 23 53  1  0
 24 54  1  0
 24 55  1  0
 24 56  1  0
 25 26  1  0
 26 27  1  0
 26 57  1  0
 26 58  1  0
 27 28  1  0
 27 59  1  0
 27 60  1  0
 28 29  2  0
 29 30  1  0
 29 61  1  0
 30 31  2  0
 30 62  1  0
 31 32  1  0
 31 63  1  0
 32 33  2  0
 32 64  1  0
 33 28  1  0
 33 65  1  0
M  END
> <Name>
CHEMBL1819391

> <Clean Energy>
8.53915

> <chembl_id>
CHEMBL1819391

> <chembl_pref_name>
None

> <efficacy>
0.902184236

> <Forcefield>
MMFF

> <ForcefieldBase>
MMFF

> <ForcefieldFFML>
<?xml version="1.0" encoding="UTF-8"?>
<!DOCTYPE ffml SYSTEM "Ffml.dtd">
<ffml version="1.0">
<forcefield name="MMFF" derivedFrom="MMFF" base="MMFF">
<atomTypes>
<atomType
name="C100"
element="C"
mass="12.011"
annotation=""/>
<atomType
name="O101"
element="O"
mass="16"
annotation=""/>
<atomType
name="H102"
element="H"
mass="1.008"
annotation=""/>
</atomTypes>
<parameters>
</parameters>
</forcefield>
</ffml>

> <Initial Potential Energy>
131.82819

> <Initial RMS Gradient>
26.75825

> <Minimization Criteria>
STEEPD> Minimization exiting with gradient tolerance ( 3.0000000) satisfied.

> <CHARMm Energy>
46.84348

> <Potential Energy>
46.84348

> <RMS Gradient>
0.10901

> <Bond Energy>
5.24782

> <Angle Energy>
10.91485

> <STRBend>
0.23996

> <Dihedral Energy>
11.49431

> <OOPLane>
0.21754

> <Van der Waals Energy>
66.1041

> <Electrostatic Energy>
-47.3751

> <Hydrogen Bond Energy>
0

> <Solvation Free Energy>
0

> <HasGasteigerCharges>
true

> <REMARK99>
REMARK  99  MacroMolecule created from Mol2 file
REMARK  99  CHEMBL1819391
REMARK  99  PROTEIN
REMARK  99  GASTEIGER
REMARK  99
REMARK  99

$$$$
CHEMBL421729
  SciTegic05292516403D

 66 69  0  0  0  0            999 V2000
    9.7746   -2.8101   -0.0459 C   0  0
    0.3756   -6.1508   -0.8193 C   0  0
    9.0332   -1.5231   -0.1456 C   0  0
    0.3385   -4.8861    0.0551 C   0  0  2  0  0  0
    7.6129    0.9257   -0.2685 C   0  0
    9.1798   -4.0285   -0.0074 C   0  0
   11.2683   -2.8390   -0.0199 C   0  0
    0.4909   -7.2960   -0.4021 O   0  0
    1.3201   -5.0095    1.2378 C   0  0
    7.9300   -1.3769   -0.9928 C   0  0
    9.4834   -0.3913    0.5609 C   0  0
    8.7827    0.8209    0.4975 C   0  0
    7.2159   -0.1791   -1.0347 C   0  0
    6.7929    2.1400   -0.2652 C   0  0
    2.7558   -4.6231    0.9363 C   0  0
    0.1897   -5.9085   -2.1442 O   0  0
    5.4982   -3.9837    0.5781 C   0  0
    7.7496   -4.5199    0.0167 C   0  0
   -0.9761   -4.6873    0.6009 O   0  0
    3.2566   -3.3671    1.3046 C   0  0
    3.6388   -5.5349    0.3462 C   0  0
    4.9962   -5.2190    0.1687 C   0  0
    4.6129   -3.0544    1.1268 C   0  0
    6.8078   -3.5772    0.5155 O   0  0
   11.9957   -2.2717   -1.0755 C   0  0
   11.9683   -3.3863    1.0655 C   0  0
    7.2814    3.3536   -0.7567 C   0  0
    5.4721    2.1009    0.2151 C   0  0
   -1.9346   -4.1839   -0.3223 C   0  0
   -2.9538   -5.2620   -0.6392 C   0  0
   13.3654   -3.3828    1.0828 C   0  0
    6.4650    4.4869   -0.7764 C   0  0
    4.6577    3.2354    0.1999 C   0  0
   13.3922   -2.2693   -1.0549 C   0  0
   14.0778   -2.8282    0.0215 C   0  0
    5.1568    4.4319   -0.2975 C   0  0
    0.6244   -4.0086   -0.5381 H   0  0
    9.8450   -4.8951    0.0025 H   0  0
    0.9642   -4.3754    2.0620 H   0  0
    1.3072   -6.0244    1.6567 H   0  0
    7.5925   -2.2027   -1.6126 H   0  0
   10.3810   -0.4386    1.1802 H   0  0
    9.1463    1.6718    1.0746 H   0  0
    6.3339   -0.1160   -1.6688 H   0  0
    0.1829   -4.9577   -2.3692 H   0  0
    7.4873   -4.8187   -1.0057 H   0  0
    7.7300   -5.4064    0.6642 H   0  0
    2.6103   -2.6278    1.7718 H   0  0
    3.2933   -6.5249    0.0539 H   0  0
    5.6330   -5.9810   -0.2691 H   0  0
    4.9870   -2.0842    1.4470 H   0  0
   11.4865   -1.8209   -1.9238 H   0  0
   11.4391   -3.8114    1.9144 H   0  0
    8.3002    3.4326   -1.1352 H   0  0
    5.0642    1.1709    0.6080 H   0  0
   -2.4436   -3.3458    0.1650 H   0  0
   -1.4731   -3.7975   -1.2372 H   0  0
   -3.7345   -4.8754   -1.3005 H   0  0
   -3.4214   -5.6311    0.2797 H   0  0
   -2.4823   -6.1225   -1.1225 H   0  0
   13.8927   -3.8043    1.9333 H   0  0
    6.8589    5.4223   -1.1639 H   0  0
    3.6390    3.1651    0.5716 H   0  0
   13.9379   -1.8228   -1.8808 H   0  0
   15.1633   -2.8216    0.0379 H   0  0
    4.5439    5.3304   -0.3064 H   0  0
  2  4  1  0
  3  1  1  0
  4  9  1  0
  4 19  1  0
  4 37  1  0
  5 12  2  0
  6  1  2  0
  6 38  1  0
  7  1  1  0
  8  2  2  0
  9 15  1  0
  9 39  1  0
  9 40  1  0
 10  3  1  0
 10 41  1  0
 11  3  2  0
 11 42  1  0
 12 11  1  0
 12 43  1  0
 13  5  1  0
 13 10  2  0
 13 44  1  0
 14  5  1  0
 15 20  1  0
 16  2  1  0
 16 45  1  0
 17 24  1  0
 18  6  1  0
 18 46  1  0
 18 47  1  0
 20 23  2  0
 20 48  1  0
 21 15  2  0
 21 22  1  0
 21 49  1  0
 22 17  2  0
 22 50  1  0
 23 17  1  0
 23 51  1  0
 24 18  1  0
 25  7  1  0
 25 52  1  0
 26  7  2  0
 26 53  1  0
 27 14  2  0
 27 54  1  0
 28 14  1  0
 28 55  1  0
 29 19  1  0
 29 56  1  0
 29 57  1  0
 30 29  1  0
 30 58  1  0
 30 59  1  0
 30 60  1  0
 31 26  1  0
 31 61  1  0
 32 27  1  0
 32 36  2  0
 32 62  1  0
 33 28  2  0
 33 63  1  0
 34 25  2  0
 34 35  1  0
 34 64  1  0
 35 31  2  0
 35 65  1  0
 36 33  1  0
 36 66  1  0
M  END
> <Name>
CHEMBL421729

> <Clean Energy>
41.328899

> <chembl_id>
CHEMBL421729

> <chembl_pref_name>
None

> <efficacy>
1.29

> <Forcefield>
MMFF

> <ForcefieldBase>
MMFF

> <ForcefieldFFML>
<?xml version="1.0" encoding="UTF-8"?>
<!DOCTYPE ffml SYSTEM "Ffml.dtd">
<ffml version="1.0">
<forcefield name="MMFF" derivedFrom="MMFF" base="MMFF">
<atomTypes>
<atomType
name="C100"
element="C"
mass="12.011"
annotation=""/>
<atomType
name="O101"
element="O"
mass="16"
annotation=""/>
<atomType
name="H102"
element="H"
mass="1.008"
annotation=""/>
</atomTypes>
<parameters>
</parameters>
</forcefield>
</ffml>

> <Initial Potential Energy>
355.78475

> <Initial RMS Gradient>
44.23129

> <Minimization Criteria>
STEEPD> Minimization exiting with gradient tolerance ( 3.0000000) satisfied.

> <CHARMm Energy>
126.00769

> <Potential Energy>
126.00769

> <RMS Gradient>
0.01175

> <Bond Energy>
9.58462

> <Angle Energy>
18.32201

> <STRBend>
0.04129

> <Dihedral Energy>
17.26802

> <OOPLane>
0.17044

> <Van der Waals Energy>
76.9782

> <Electrostatic Energy>
3.64311

> <Hydrogen Bond Energy>
0

> <Solvation Free Energy>
0

> <HasGasteigerCharges>
true

> <REMARK99>
REMARK  99  MacroMolecule created from Mol2 file
REMARK  99  CHEMBL421729
REMARK  99  PROTEIN
REMARK  99  GASTEIGER
REMARK  99
REMARK  99

$$$$
CHEMBL1945219
  SciTegic05292516403D

 68 72  0  0  0  0            999 V2000
    2.6376  -17.5170    0.2073 C   0  0
    2.3930  -18.7767    0.6353 C   0  0
    3.4684  -19.7339    0.8615 C   0  0
    4.0813  -17.1842   -0.0951 C   0  0
    4.4551  -16.0178    0.0185 O   0  0
    1.5122  -16.5354    0.0525 C   0  0
    1.7916  -15.1858   -0.5533 C   0  0
    0.3680  -16.8446    0.4025 O   0  0
    1.1429  -19.2604    0.9747 O   0  0
    4.9603  -18.3446   -0.5958 C   0  0  1  0  0  0
    4.6747  -19.5221    0.3095 C   0  0
    5.8463  -20.2045    0.6563 O   0  0
    4.6164  -18.6621   -2.0598 C   0  0
    6.4525  -18.2626   -0.4189 C   0  0
    6.9175  -19.4108    0.2676 C   0  0
    8.2812  -19.6601    0.4765 C   0  0
    9.1607  -18.6499    0.0291 C   0  0
    8.7051  -17.5196   -0.6808 C   0  0
    7.3474  -17.3390   -0.9182 C   0  0
    6.8997  -16.2942   -1.6627 O   0  0
   10.5239  -18.7407    0.2199 O   0  0
   10.9012  -17.9669    1.3646 C   0  0
    8.7869  -20.9172    1.1462 C   0  0
    8.0496  -21.5739    1.8741 O   0  0
   10.1081  -21.2599    0.8861 N   0  0
   10.8430  -22.3367    1.5298 C   0  0
   12.0304  -22.7575    0.6840 C   0  0
   14.2469  -23.3229   -0.9361 C   0  0
   14.2738  -22.1876   -0.1210 C   0  0
   13.1651  -21.9145    0.6833 C   0  0
   13.1465  -24.1890   -0.9518 C   0  0
   12.0156  -23.9181   -0.1415 C   0  0
   10.9395  -24.8325   -0.2154 C   0  0
   10.9841  -25.9617   -1.0358 C   0  0
   12.1018  -26.2095   -1.8175 C   0  0
   13.1734  -25.3234   -1.7789 C   0  0
   15.4883  -21.2893   -0.1281 C   0  0
   16.6680  -21.9289    0.6023 C   0  0
   17.9314  -21.1165    0.4420 C   0  0
   18.9817  -21.6806    1.0837 O   0  0
   18.0206  -20.0729   -0.1853 O   0  0
    3.3095  -20.5565    1.5519 H   0  0
    0.8436  -14.7170   -0.8354 H   0  0
    2.3898  -15.2884   -1.4623 H   0  0
    2.2929  -14.5452    0.1760 H   0  0
    0.4607  -18.5501    0.8614 H   0  0
    5.1737  -19.5302   -2.4328 H   0  0
    4.8537  -17.8135   -2.7122 H   0  0
    3.5499  -18.8758   -2.1957 H   0  0
    9.4348  -16.8037   -1.0512 H   0  0
    7.6626  -15.7455   -1.9137 H   0  0
   11.9623  -18.1530    1.5554 H   0  0
   10.3384  -18.2693    2.2550 H   0  0
   10.7730  -16.8960    1.1753 H   0  0
   10.6261  -20.6524    0.2603 H   0  0
   11.1995  -21.9497    2.4924 H   0  0
   10.1628  -23.1552    1.7751 H   0  0
   15.1032  -23.5355   -1.5752 H   0  0
   13.1657  -21.0236    1.3103 H   0  0
   10.0329  -24.6794    0.3643 H   0  0
   10.1474  -26.6518   -1.0561 H   0  0
   12.1433  -27.0901   -2.4539 H   0  0
   14.0402  -25.5309   -2.4027 H   0  0
   15.7514  -21.0664   -1.1705 H   0  0
   15.2457  -20.3220    0.3301 H   0  0
   16.4396  -22.0152    1.6709 H   0  0
   16.8679  -22.9308    0.2050 H   0  0
   18.7308  -22.4944    1.5639 H   0  0
  1  2  2  0
  1  4  1  0
  1  6  1  0
  2  3  1  0
  2  9  1  0
  3 11  2  0
  3 42  1  0
  4  5  2  0
  6  7  1  0
  6  8  2  0
  7 43  1  0
  7 44  1  0
  7 45  1  0
  9 46  1  0
 10  4  1  0
 10 11  1  0
 10 13  1  0
 11 12  1  0
 12 15  1  0
 13 47  1  0
 13 48  1  0
 13 49  1  0
 14 10  1  0
 14 15  2  0
 15 16  1  0
 16 17  2  0
 16 23  1  0
 17 18  1  0
 17 21  1  0
 18 19  2  0
 18 50  1  0
 19 14  1  0
 19 20  1  0
 20 51  1  0
 21 22  1  0
 22 52  1  0
 22 53  1  0
 22 54  1  0
 23 24  2  0
 23 25  1  0
 25 26  1  0
 25 55  1  0
 26 27  1  0
 26 56  1  0
 26 57  1  0
 27 32  2  0
 28 29  1  0
 28 58  1  0
 29 30  2  0
 29 37  1  0
 30 27  1  0
 30 59  1  0
 31 28  2  0
 31 32  1  0
 32 33  1  0
 33 34  2  0
 33 60  1  0
 34 35  1  0
 34 61  1  0
 35 36  2  0
 35 62  1  0
 36 31  1  0
 36 63  1  0
 37 38  1  0
 37 64  1  0
 37 65  1  0
 38 39  1  0
 38 66  1  0
 38 67  1  0
 39 40  1  0
 39 41  2  0
 40 68  1  0
M  END
> <Name>
CHEMBL1945219

> <Clean Energy>
59.480701

> <chembl_id>
CHEMBL1945219

> <chembl_pref_name>
None

> <efficacy>
1.09

> <Forcefield>
MMFF

> <ForcefieldBase>
MMFF

> <ForcefieldFFML>
<?xml version="1.0" encoding="UTF-8"?>
<!DOCTYPE ffml SYSTEM "Ffml.dtd">
<ffml version="1.0">
<forcefield name="MMFF" derivedFrom="MMFF" base="MMFF">
<atomTypes>
<atomType
name="C100"
element="C"
mass="12.011"
annotation=""/>
<atomType
name="O101"
element="O"
mass="16"
annotation=""/>
<atomType
name="N102"
element="N"
mass="14.007"
annotation=""/>
<atomType
name="H103"
element="H"
mass="1.008"
annotation=""/>
</atomTypes>
<parameters>
</parameters>
</forcefield>
</ffml>

> <Initial Potential Energy>
150.82711

> <Initial RMS Gradient>
27.84136

> <Minimization Criteria>
CONJUG> Minimization exiting with gradient tolerance ( 0.0100000) satisfied.

> <CHARMm Energy>
41.89338

> <Potential Energy>
41.89338

> <RMS Gradient>
0.0069

> <Bond Energy>
12.112

> <Angle Energy>
25.72186

> <STRBend>
0.73998

> <Dihedral Energy>
10.98752

> <OOPLane>
0.35804

> <Van der Waals Energy>
80.81201

> <Electrostatic Energy>
-88.83803

> <Hydrogen Bond Energy>
0

> <Solvation Free Energy>
0

> <HasGasteigerCharges>
true

> <REMARK99>
REMARK  99  MacroMolecule created from Mol2 file
REMARK  99  CHEMBL1945219
REMARK  99  PROTEIN
REMARK  99  GASTEIGER
REMARK  99
REMARK  99

$$$$
CHEMBL515991
  SciTegic05292516403D

 59 63  0  0  0  0            999 V2000
    5.8321    2.5849    1.5568 C   0  0
    5.6750    1.3501    0.9219 C   0  0
    6.7492    0.7758    0.2403 C   0  0
    7.0424    3.2791    1.4526 C   0  0
    8.1028    2.7296    0.7308 C   0  0
    7.9492    1.4764    0.1483 C   0  0
    9.0125    0.8811   -0.5610 O   0  0
   10.2505    1.5146   -0.7121 C   0  0
   10.3664    2.8648   -0.1215 C   0  0
    9.3582    3.4342    0.5584 C   0  0
   11.5908    3.6769   -0.2516 C   0  0
   12.6923    2.9001   -0.1585 O   0  0
   11.5828    4.8952   -0.3647 O   0  0
   13.9312    3.6028   -0.2868 C   0  0
   11.1719    0.9762   -1.3213 O   0  0
    4.5187    0.6202    0.9464 O   0  0
    3.3090    1.3852    0.8515 C   0  0
    2.3342    0.5961   -0.0133 C   0  0
    1.0948    1.3505   -0.3210 C   0  0
    0.9206    2.4592   -1.1216 C   0  0
   -0.4076    2.7733   -1.1204 O   0  0
   -0.9881    1.8125   -0.3304 C   0  0
   -0.1226    0.9591    0.1870 N   0  0
    1.8141    3.3103   -1.9264 C   0  0
   -2.4360    1.8388   -0.2009 C   0  0
   -3.2167    2.8458   -0.7798 C   0  0
   -4.6092    2.8178   -0.6634 C   0  0
   -5.2533    1.7842    0.0318 C   0  0
   -4.4675    0.7835    0.6185 C   0  0
   -3.0763    0.8120    0.5051 C   0  0
   -6.7140    1.7408    0.1318 C   0  0
   -7.4314    2.8125    0.6846 C   0  0
   -8.8225    2.7676    0.7732 C   0  0
   -9.5128    1.6509    0.3088 C   0  0
   -8.8179    0.5778   -0.2425 C   0  0
   -7.4270    0.6223   -0.3291 C   0  0
    5.0280    3.0220    2.1417 H   0  0
    6.6396   -0.1967   -0.2302 H   0  0
    7.1394    4.2472    1.9378 H   0  0
    9.4513    4.4293    0.9861 H   0  0
   14.7423    2.8743   -0.2053 H   0  0
   14.0393    4.3367    0.5177 H   0  0
   13.9959    4.0886   -1.2654 H   0  0
    2.9034    1.5351    1.8591 H   0  0
    3.4855    2.3683    0.3962 H   0  0
    2.8241    0.3098   -0.9531 H   0  0
    2.0895   -0.3501    0.4852 H   0  0
    1.3108    3.6560   -2.8344 H   0  0
    2.7123    2.7621   -2.2282 H   0  0
    2.1253    4.1865   -1.3499 H   0  0
   -2.7553    3.6580   -1.3373 H   0  0
   -5.1926    3.6029   -1.1392 H   0  0
   -4.9350   -0.0279    1.1730 H   0  0
   -2.4902    0.0178    0.9648 H   0  0
   -6.9082    3.6894    1.0600 H   0  0
   -9.3684    3.6019    1.2060 H   0  0
  -10.5946    1.6162    0.3773 H   0  0
   -9.3595   -0.2910   -0.6071 H   0  0
   -6.8984   -0.2191   -0.7728 H   0  0
  1  2  2  0
  1 37  1  0
  2  3  1  0
  2 16  1  0
  3  6  2  0
  3 38  1  0
  4  1  1  0
  4 39  1  0
  5  4  2  0
  5  6  1  0
  5 10  1  0
  6  7  1  0
  7  8  1  0
  8  9  1  0
  8 15  2  0
  9 10  2  0
  9 11  1  0
 10 40  1  0
 11 12  1  0
 11 13  2  0
 12 14  1  0
 14 41  1  0
 14 42  1  0
 14 43  1  0
 16 17  1  0
 17 18  1  0
 17 44  1  0
 17 45  1  0
 18 19  1  0
 18 46  1  0
 18 47  1  0
 19 20  2  0
 20 21  1  0
 20 24  1  0
 21 22  1  0
 22 23  2  0
 22 25  1  0
 23 19  1  0
 24 48  1  0
 24 49  1  0
 24 50  1  0
 25 26  2  0
 26 27  1  0
 26 51  1  0
 27 28  2  0
 27 52  1  0
 28 29  1  0
 28 31  1  0
 29 30  2  0
 29 53  1  0
 30 25  1  0
 30 54  1  0
 31 32  2  0
 32 33  1  0
 32 55  1  0
 33 34  2  0
 33 56  1  0
 34 35  1  0
 34 57  1  0
 35 36  2  0
 35 58  1  0
 36 31  1  0
 36 59  1  0
M  END
> <Name>
CHEMBL515991

> <Clean Energy>
24.4655

> <chembl_id>
CHEMBL515991

> <chembl_pref_name>
None

> <efficacy>
2.63

> <Forcefield>
MMFF

> <ForcefieldBase>
MMFF

> <ForcefieldFFML>
<?xml version="1.0" encoding="UTF-8"?>
<!DOCTYPE ffml SYSTEM "Ffml.dtd">
<ffml version="1.0">
<forcefield name="MMFF" derivedFrom="MMFF" base="MMFF">
<atomTypes>
<atomType
name="C100"
element="C"
mass="12.011"
annotation=""/>
<atomType
name="O101"
element="O"
mass="16"
annotation=""/>
<atomType
name="N102"
element="N"
mass="14.007"
annotation=""/>
<atomType
name="H103"
element="H"
mass="1.008"
annotation=""/>
</atomTypes>
<parameters>
</parameters>
</forcefield>
</ffml>

> <Initial Potential Energy>
161.6103

> <Initial RMS Gradient>
28.59948

> <Minimization Criteria>
STEEPD> Minimization exiting with gradient tolerance ( 3.0000000) satisfied.

> <CHARMm Energy>
75.9023

> <Potential Energy>
75.9023

> <RMS Gradient>
0.11313

> <Bond Energy>
6.08175

> <Angle Energy>
20.1624

> <STRBend>
-0.80631

> <Dihedral Energy>
12.26383

> <OOPLane>
0.10468

> <Van der Waals Energy>
68.26129

> <Electrostatic Energy>
-30.16534

> <Hydrogen Bond Energy>
0

> <Solvation Free Energy>
0

> <HasGasteigerCharges>
true

> <REMARK99>
REMARK  99  MacroMolecule created from Mol2 file
REMARK  99  CHEMBL515991
REMARK  99  PROTEIN
REMARK  99  GASTEIGER
REMARK  99
REMARK  99

$$$$
CHEMBL4163066
  SciTegic05292516403D

 51 55  0  0  0  0            999 V2000
   14.9334  -20.9270    0.4821 C   0  0
   16.1257  -21.6014    0.6262 O   0  0
   17.3047  -20.8853    0.5418 C   0  0
   18.4199  -21.6133    0.0916 C   0  0
   18.6636  -18.8936    0.8495 C   0  0
   17.4313  -19.5512    0.9418 C   0  0
   19.7779  -19.5998    0.3744 C   0  0
   19.6492  -20.9386    0.0161 C   0  0
   20.9227  -21.3056   -0.3623 N   0  0
   21.7382  -20.1961   -0.2641 C   0  0
   21.0603  -19.1594    0.1912 N   0  0
   21.3496  -22.6227   -0.7748 C   0  0
   23.1789  -20.1637   -0.6586 C   0  0
   23.8918  -21.0506    0.2104 O   0  0
   25.2375  -20.8387    0.3187 C   0  0
   25.8250  -21.3716    1.4703 C   0  0
   27.1927  -21.2235    1.7093 C   0  0
   27.9851  -20.5368    0.7927 C   0  0
   27.3982  -20.0059   -0.3619 C   0  0
   26.0309  -20.1725   -0.6140 C   0  0
   13.9772  -21.1024    1.4990 C   0  0
   12.7232  -20.4896    1.4103 C   0  0
   14.6380  -20.1716   -0.6571 C   0  0
   28.2159  -19.2801   -1.3564 C   0  0
   29.0165  -18.3532   -0.7886 O   0  0
   28.1381  -19.4790   -2.5548 O   0  0
   13.3876  -19.5880   -0.7269 C   0  0
   12.4477  -19.7354    0.2837 C   0  0
   11.2419  -18.9421   -0.0473 C   0  0
   11.5231  -18.6794   -1.5269 C   0  0
   12.9473  -18.8103   -1.7688 O   0  0
   18.3175  -22.6554   -0.1915 H   0  0
   18.7752  -17.8547    1.1388 H   0  0
   16.5790  -19.0015    1.3321 H   0  0
   21.9812  -22.5325   -1.6617 H   0  0
   20.4795  -23.2350   -1.0209 H   0  0
   21.9033  -23.0768    0.0505 H   0  0
   23.2968  -20.4856   -1.6992 H   0  0
   23.5396  -19.1327   -0.5521 H   0  0
   25.2087  -21.9044    2.1917 H   0  0
   27.6345  -21.6513    2.6062 H   0  0
   29.0544  -20.4466    0.9684 H   0  0
   25.6202  -19.7786   -1.5393 H   0  0
   14.2179  -21.7141    2.3649 H   0  0
   11.9888  -20.6066    2.2021 H   0  0
   15.3531  -20.0521   -1.4622 H   0  0
   28.8126  -18.1829    0.1515 H   0  0
   10.3026  -19.4814    0.0992 H   0  0
   11.2338  -18.0092    0.5253 H   0  0
   11.0095  -19.4113   -2.1634 H   0  0
   11.1958  -17.6792   -1.8290 H   0  0
  1  2  1  0
  1 21  2  0
  2  3  1  0
  3  4  2  0
  4  8  1  0
  4 32  1  0
  5  6  2  0
  5 33  1  0
  6  3  1  0
  6 34  1  0
  7  5  1  0
  7  8  2  0
  8  9  1  0
  9 10  1  0
  9 12  1  0
 10 11  2  0
 10 13  1  0
 11  7  1  0
 12 35  1  0
 12 36  1  0
 12 37  1  0
 13 14  1  0
 13 38  1  0
 13 39  1  0
 14 15  1  0
 15 16  2  0
 16 17  1  0
 16 40  1  0
 17 18  2  0
 17 41  1  0
 18 19  1  0
 18 42  1  0
 19 20  2  0
 19 24  1  0
 20 15  1  0
 20 43  1  0
 21 22  1  0
 21 44  1  0
 22 28  2  0
 22 45  1  0
 23  1  1  0
 23 46  1  0
 24 25  1  0
 24 26  2  0
 25 47  1  0
 27 23  2  0
 27 28  1  0
 28 29  1  0
 29 30  1  0
 29 48  1  0
 29 49  1  0
 30 31  1  0
 30 50  1  0
 30 51  1  0
 31 27  1  0
M  END
> <Name>
CHEMBL4163066

> <Clean Energy>
47.440102

> <chembl_id>
CHEMBL4163066

> <chembl_pref_name>
None

> <efficacy>
0.95

> <Forcefield>
MMFF

> <ForcefieldBase>
MMFF

> <ForcefieldFFML>
<?xml version="1.0" encoding="UTF-8"?>
<!DOCTYPE ffml SYSTEM "Ffml.dtd">
<ffml version="1.0">
<forcefield name="MMFF" derivedFrom="MMFF" base="MMFF">
<atomTypes>
<atomType
name="C100"
element="C"
mass="12.011"
annotation=""/>
<atomType
name="O101"
element="O"
mass="16"
annotation=""/>
<atomType
name="N102"
element="N"
mass="14.007"
annotation=""/>
<atomType
name="H103"
element="H"
mass="1.008"
annotation=""/>
</atomTypes>
<parameters>
</parameters>
</forcefield>
</ffml>

> <Initial Potential Energy>
208.6567

> <Initial RMS Gradient>
46.41284

> <Minimization Criteria>
CONJUG> Minimization exiting with gradient tolerance ( 0.0100000) satisfied.

> <CHARMm Energy>
69.56773

> <Potential Energy>
69.56773

> <RMS Gradient>
0.00918

> <Bond Energy>
5.0939

> <Angle Energy>
23.11451

> <STRBend>
0.00246

> <Dihedral Energy>
14.34225

> <OOPLane>
0.1289

> <Van der Waals Energy>
57.33748

> <Electrostatic Energy>
-30.45178

> <Hydrogen Bond Energy>
0

> <Solvation Free Energy>
0

> <HasGasteigerCharges>
true

> <REMARK99>
REMARK  99  MacroMolecule created from Mol2 file
REMARK  99  CHEMBL4163066
REMARK  99  PROTEIN
REMARK  99  GASTEIGER
REMARK  99
REMARK  99

$$$$
CHEMBL2377525
  SciTegic05292516403D

 71 74  0  0  0  0            999 V2000
   14.8401  -13.4771    0.0401 C   0  0
   14.6297  -14.8557   -0.1443 C   0  0
   15.7056  -15.6070   -0.6537 C   0  0
   16.9377  -15.0069   -0.9710 C   0  0
   17.1257  -13.6353   -0.7749 C   0  0
   16.0665  -12.8718   -0.2769 C   0  0
   18.4011  -12.9466   -1.1372 C   0  0
   19.5569  -13.6505   -0.9009 N   0  0
   18.3583  -11.8145   -1.6069 O   0  0
   20.8706  -13.1760   -1.2822 C   0  0
   22.0251  -13.8208   -0.5295 C   0  0
   22.0069  -15.1239    0.0062 C   0  0
   23.1428  -15.6160    0.6618 C   0  0
   24.3001  -14.8413    0.7842 C   0  0
   24.3637  -13.5666    0.2233 C   0  0
   23.2167  -13.0683   -0.4183 C   0  0
   25.5839  -12.6757    0.3450 C   0  0
   26.9712  -13.3617    0.3847 C   0  0  2  0  0  0
   28.0077  -12.2958    0.7051 C   0  0
   27.3205  -14.0307   -0.9560 C   0  0
   29.1253  -12.7735    1.2967 O   0  0
   27.8620  -11.1068    0.4618 O   0  0
   28.4099  -15.0724   -0.8083 C   0  0
   29.7375  -14.7765   -1.1479 C   0  0
   30.7441  -15.7274   -0.9638 C   0  0
   30.4319  -16.9837   -0.4470 C   0  0
   29.1122  -17.2912   -0.1178 C   0  0
   28.1061  -16.3414   -0.2967 C   0  0
   20.8532  -15.8512   -0.1533 O   0  0
   20.7372  -17.0816    0.5687 C   0  0
   19.3166  -17.6060    0.3894 C   0  0
   19.1098  -18.9344    1.0943 C   0  0
   13.3197  -15.4815    0.1609 C   0  0
   12.1173  -14.9296   -0.3251 C   0  0
   10.8749  -15.5148   -0.0384 C   0  0
   10.8155  -16.6632    0.7406 C   0  0
   11.9813  -17.2343    1.2346 C   0  0
   13.2234  -16.6479    0.9455 C   0  0
    9.6272  -17.2246    1.0177 F   0  0
   14.0409  -12.8512    0.4345 H   0  0
   15.5768  -16.6718   -0.8435 H   0  0
   17.7236  -15.6155   -1.4097 H   0  0
   16.1865  -11.7986   -0.1377 H   0  0
   19.5250  -14.5721   -0.4823 H   0  0
   20.9902  -13.3787   -2.3525 H   0  0
   20.8885  -12.0891   -1.1397 H   0  0
   23.1641  -16.6105    1.0956 H   0  0
   25.1418  -15.2619    1.3267 H   0  0
   23.2440  -12.0622   -0.8399 H   0  0
   25.5764  -11.9606   -0.4897 H   0  0
   25.4496  -12.0814    1.2595 H   0  0
   26.9809  -14.0793    1.2135 H   0  0
   26.4446  -14.5294   -1.3888 H   0  0
   27.6288  -13.2788   -1.6943 H   0  0
   29.1642  -13.7479    1.3711 H   0  0
   29.9999  -13.7996   -1.5522 H   0  0
   31.7738  -15.4906   -1.2270 H   0  0
   31.2177  -17.7244   -0.3101 H   0  0
   28.8646  -18.2748    0.2731 H   0  0
   27.0796  -16.6010   -0.0440 H   0  0
   21.4497  -17.8120    0.1676 H   0  0
   20.9261  -16.9161    1.6364 H   0  0
   18.6053  -16.8687    0.7788 H   0  0
   19.0940  -17.7122   -0.6788 H   0  0
   18.0815  -19.2820    0.9540 H   0  0
   19.2929  -18.8406    2.1695 H   0  0
   19.7843  -19.6990    0.6961 H   0  0
   12.1408  -14.0367   -0.9480 H   0  0
    9.9546  -15.0815   -0.4205 H   0  0
   11.9162  -18.1303    1.8453 H   0  0
   14.1231  -17.1048    1.3538 H   0  0
  1  2  2  0
  1 40  1  0
  2  3  1  0
  2 33  1  0
  3  4  2  0
  3 41  1  0
  4  5  1  0
  4 42  1  0
  5  6  2  0
  5  7  1  0
  6  1  1  0
  6 43  1  0
  7  8  1  0
  7  9  2  0
  8 10  1  0
  8 44  1  0
 10 11  1  0
 10 45  1  0
 10 46  1  0
 11 12  2  0
 12 13  1  0
 12 29  1  0
 13 14  2  0
 13 47  1  0
 14 15  1  0
 14 48  1  0
 15 16  2  0
 15 17  1  0
 16 11  1  0
 16 49  1  0
 17 18  1  0
 17 50  1  0
 17 51  1  0
 18 19  1  0
 18 20  1  0
 18 52  1  0
 19 21  1  0
 19 22  2  0
 20 23  1  0
 20 53  1  0
 20 54  1  0
 21 55  1  0
 23 24  2  0
 24 25  1  0
 24 56  1  0
 25 26  2  0
 25 57  1  0
 26 27  1  0
 26 58  1  0
 27 28  2  0
 27 59  1  0
 28 23  1  0
 28 60  1  0
 29 30  1  0
 30 31  1  0
 30 61  1  0
 30 62  1  0
 31 32  1  0
 31 63  1  0
 31 64  1  0
 32 65  1  0
 32 66  1  0
 32 67  1  0
 33 34  2  0
 34 35  1  0
 34 68  1  0
 35 36  2  0
 35 69  1  0
 36 37  1  0
 36 39  1  0
 37 38  2  0
 37 70  1  0
 38 33  1  0
 38 71  1  0
M  END
> <Name>
CHEMBL2377525

> <Clean Energy>
16.665899

> <chembl_id>
CHEMBL2377525

> <chembl_pref_name>
None

> <efficacy>
1.04

> <Forcefield>
MMFF

> <ForcefieldBase>
MMFF

> <ForcefieldFFML>
<?xml version="1.0" encoding="UTF-8"?>
<!DOCTYPE ffml SYSTEM "Ffml.dtd">
<ffml version="1.0">
<forcefield name="MMFF" derivedFrom="MMFF" base="MMFF">
<atomTypes>
<atomType
name="C100"
element="C"
mass="12.011"
annotation=""/>
<atomType
name="N101"
element="N"
mass="14.007"
annotation=""/>
<atomType
name="O102"
element="O"
mass="16"
annotation=""/>
<atomType
name="F103"
element="F"
mass="18.998"
annotation=""/>
<atomType
name="H104"
element="H"
mass="1.008"
annotation=""/>
</atomTypes>
<parameters>
</parameters>
</forcefield>
</ffml>

> <Initial Potential Energy>
150.01341

> <Initial RMS Gradient>
30.11932

> <Minimization Criteria>
STEEPD> Minimization exiting with gradient tolerance ( 3.0000000) satisfied.

> <CHARMm Energy>
37.35211

> <Potential Energy>
37.35211

> <RMS Gradient>
0.02473

> <Bond Energy>
10.67565

> <Angle Energy>
13.81387

> <STRBend>
0.46428

> <Dihedral Energy>
0.38718

> <OOPLane>
0.07722

> <Van der Waals Energy>
82.05987

> <Electrostatic Energy>
-70.12597

> <Hydrogen Bond Energy>
0

> <Solvation Free Energy>
0

> <HasGasteigerCharges>
true

> <REMARK99>
REMARK  99  MacroMolecule created from Mol2 file
REMARK  99  CHEMBL2377525
REMARK  99  PROTEIN
REMARK  99  GASTEIGER
REMARK  99
REMARK  99

$$$$
CHEMBL4169731
  SciTegic05292516403D

 50 53  0  0  0  0            999 V2000
   24.0098  -15.4141   -0.5833 C   0  0
   25.0989  -16.1974   -0.8818 O   0  0
   26.3564  -15.6211   -0.8904 C   0  0
   27.4241  -16.5373   -0.8559 C   0  0
   27.9091  -13.7527   -1.0241 C   0  0
   26.5992  -14.2469   -0.9875 C   0  0
   28.9804  -14.6563   -0.9839 C   0  0
   28.7306  -16.0228   -0.9072 C   0  0
   29.9868  -16.5916   -0.9106 N   0  0
   30.9205  -15.5762   -0.9748 C   0  0
   30.3239  -14.3998   -1.0227 N   0  0
   30.2851  -18.0044   -0.8621 C   0  0
   32.4010  -15.7786   -1.0315 C   0  0
   32.7975  -16.4955    0.1428 O   0  0
   34.0638  -16.2378    0.5873 C   0  0
   34.2325  -16.2873    1.9740 C   0  0
   35.4844  -16.0562    2.5462 C   0  0
   36.5777  -15.7739    1.7292 C   0  0
   36.4087  -15.7285    0.3397 C   0  0
   35.1584  -15.9820   -0.2373 C   0  0
   23.8424  -14.8350    0.6767 C   0  0
   22.6959  -14.0859    0.9610 C   0  0
   21.7110  -13.9401   -0.0197 C   0  0
   21.8674  -14.5460   -1.2710 C   0  0
   23.0146  -15.2887   -1.5512 C   0  0
   37.5553  -15.4467   -0.5509 C   0  0
   38.2925  -14.3958   -0.1322 O   0  0
   37.7788  -16.0776   -1.5679 O   0  0
   22.6560  -13.5528    2.2211 O   0  0
   21.4777  -12.8379    2.5830 C   0  0
   27.2308  -17.6036   -0.8035 H   0  0
   28.1141  -12.6906   -1.0959 H   0  0
   25.7820  -13.5333   -1.0479 H   0  0
   31.1109  -18.2223   -1.5434 H   0  0
   29.4093  -18.5769   -1.1754 H   0  0
   30.5529  -18.2610    0.1657 H   0  0
   32.6714  -16.3567   -1.9221 H   0  0
   32.8809  -14.7927   -1.0833 H   0  0
   33.3749  -16.5000    2.6107 H   0  0
   35.6065  -16.1071    3.6258 H   0  0
   37.5569  -15.6249    2.1783 H   0  0
   35.0681  -15.9853   -1.3202 H   0  0
   24.6031  -14.9658    1.4416 H   0  0
   20.8044  -13.3694    0.1591 H   0  0
   21.0867  -14.4422   -2.0223 H   0  0
   23.1300  -15.7673   -2.5198 H   0  0
   37.8683  -13.8767    0.5784 H   0  0
   21.5940  -12.5066    3.6193 H   0  0
   20.5943  -13.4831    2.5356 H   0  0
   21.3525  -11.9465    1.9596 H   0  0
  1  2  1  0
  1 21  2  0
  2  3  1  0
  3  4  2  0
  4  8  1  0
  4 31  1  0
  5  6  2  0
  5 32  1  0
  6  3  1  0
  6 33  1  0
  7  5  1  0
  7  8  2  0
  8  9  1  0
  9 10  1  0
  9 12  1  0
 10 11  2  0
 10 13  1  0
 11  7  1  0
 12 34  1  0
 12 35  1  0
 12 36  1  0
 13 14  1  0
 13 37  1  0
 13 38  1  0
 14 15  1  0
 15 16  2  0
 16 17  1  0
 16 39  1  0
 17 18  2  0
 17 40  1  0
 18 19  1  0
 18 41  1  0
 19 20  2  0
 19 26  1  0
 20 15  1  0
 20 42  1  0
 21 22  1  0
 21 43  1  0
 22 23  2  0
 22 29  1  0
 23 24  1  0
 23 44  1  0
 24 25  2  0
 24 45  1  0
 25  1  1  0
 25 46  1  0
 26 27  1  0
 26 28  2  0
 27 47  1  0
 29 30  1  0
 30 48  1  0
 30 49  1  0
 30 50  1  0
M  END
> <Name>
CHEMBL4169731

> <Clean Energy>
30.897499

> <chembl_id>
CHEMBL4169731

> <chembl_pref_name>
None

> <efficacy>
0.92

> <Forcefield>
MMFF

> <ForcefieldBase>
MMFF

> <ForcefieldFFML>
<?xml version="1.0" encoding="UTF-8"?>
<!DOCTYPE ffml SYSTEM "Ffml.dtd">
<ffml version="1.0">
<forcefield name="MMFF" derivedFrom="MMFF" base="MMFF">
<atomTypes>
<atomType
name="C100"
element="C"
mass="12.011"
annotation=""/>
<atomType
name="O101"
element="O"
mass="16"
annotation=""/>
<atomType
name="N102"
element="N"
mass="14.007"
annotation=""/>
<atomType
name="H103"
element="H"
mass="1.008"
annotation=""/>
</atomTypes>
<parameters>
</parameters>
</forcefield>
</ffml>

> <Initial Potential Energy>
196.59496

> <Initial RMS Gradient>
44.08988

> <Minimization Criteria>
CONJUG> Minimization exiting with gradient tolerance ( 0.0100000) satisfied.

> <CHARMm Energy>
67.40817

> <Potential Energy>
67.40817

> <RMS Gradient>
0.00986

> <Bond Energy>
4.9749

> <Angle Energy>
21.9803

> <STRBend>
-0.02758

> <Dihedral Energy>
13.00376

> <OOPLane>
0.12447

> <Van der Waals Energy>
61.17783

> <Electrostatic Energy>
-33.82552

> <Hydrogen Bond Energy>
0

> <Solvation Free Energy>
0

> <HasGasteigerCharges>
true

> <REMARK99>
REMARK  99  MacroMolecule created from Mol2 file
REMARK  99  CHEMBL4169731
REMARK  99  PROTEIN
REMARK  99  GASTEIGER
REMARK  99
REMARK  99

$$$$
CHEMBL3585572
  SciTegic05292516403D

 62 65  0  0  0  0            999 V2000
    9.2020   -8.6687   -0.4857 C   0  0
    7.8383   -8.6890   -0.8597 C   0  0
    7.2811   -7.4599   -0.5246 C   0  0
    8.2816   -6.6965    0.0388 O   0  0
    9.4213   -7.4289    0.0566 C   0  0
    5.9394   -7.0256   -0.6988 C   0  0
    5.5384   -5.8219   -0.2660 C   0  0
    4.1217   -5.4390   -0.4331 C   0  0
    3.7678   -4.2867    0.2212 N   0  0
    3.2971   -6.1105   -1.0468 O   0  0
    2.3654   -3.8361    0.2054 C   0  0  2  0  0  0
    2.2219   -2.3478    0.5786 C   0  0
    1.5928   -4.7314    1.1855 C   0  0
    1.2067   -5.9089    0.6311 O   0  0
    1.3852   -4.4717    2.3616 O   0  0
    0.8665   -1.6652    0.4460 C   0  0
    0.7986   -0.2977    0.7585 C   0  0
   -0.4121    0.4028    0.6995 C   0  0
   -1.5957   -0.2393    0.3355 C   0  0
   -1.5478   -1.5914    0.0102 C   0  0
   -0.3258   -2.2969    0.0611 C   0  0
   -2.7001    0.5644    0.3373 O   0  0
   -3.9887   -0.0239    0.1140 C   0  0
   -5.0286    1.0880    0.3027 C   0  0
   -6.4300    0.6850    0.0049 C   0  0
   -7.4291    1.3835   -0.6436 C   0  0
   -8.5439    0.5904   -0.6831 O   0  0
   -8.1664   -0.5567   -0.0379 C   0  0
   -6.9283   -0.5300    0.4119 N   0  0
   -7.5375    2.7119   -1.2710 C   0  0
   -9.1182   -1.6581    0.0107 C   0  0
  -10.4769   -1.4754   -0.2863 C   0  0
  -11.3683   -2.5482   -0.2227 C   0  0
  -10.9101   -3.8138    0.1378 C   0  0
   -9.5611   -4.0119    0.4292 C   0  0
   -8.6633   -2.9424    0.3617 C   0  0
    9.9299   -9.4594   -0.5945 H   0  0
    7.3027   -9.5094   -1.3178 H   0  0
   10.2858   -6.9382    0.4817 H   0  0
    5.2388   -7.7069   -1.1753 H   0  0
    6.2138   -5.1275    0.2177 H   0  0
    4.4249   -3.8224    0.8363 H   0  0
    1.9593   -3.9871   -0.8026 H   0  0
    2.5599   -2.2087    1.6152 H   0  0
    2.9231   -1.7823   -0.0515 H   0  0
    1.6926   -6.0967   -0.2109 H   0  0
    1.6920    0.2402    1.0671 H   0  0
   -0.4336    1.4595    0.9559 H   0  0
   -2.4413   -2.1335   -0.2830 H   0  0
   -0.3544   -3.3531   -0.1935 H   0  0
   -4.0421   -0.4198   -0.9074 H   0  0
   -4.1677   -0.8314    0.8345 H   0  0
   -4.9745    1.4581    1.3343 H   0  0
   -4.7479    1.9418   -0.3274 H   0  0
   -8.5348    3.1360   -1.1178 H   0  0
   -7.3551    2.6397   -2.3473 H   0  0
   -6.8077    3.4064   -0.8446 H   0  0
  -10.8501   -0.4924   -0.5649 H   0  0
  -12.4191   -2.3932   -0.4516 H   0  0
  -11.6037   -4.6483    0.1928 H   0  0
   -9.2095   -5.0002    0.7131 H   0  0
   -7.6059   -3.1108    0.5817 H   0  0
  1  2  1  0
  1 37  1  0
  2  3  2  0
  2 38  1  0
  3  4  1  0
  3  6  1  0
  4  5  1  0
  5  1  2  0
  5 39  1  0
  6  7  2  0
  6 40  1  0
  7  8  1  0
  7 41  1  0
  8  9  1  0
  8 10  2  0
  9 42  1  0
 11  9  1  0
 11 12  1  0
 11 13  1  0
 11 43  1  0
 12 16  1  0
 12 44  1  0
 12 45  1  0
 13 14  1  0
 13 15  2  0
 14 46  1  0
 16 17  2  0
 17 18  1  0
 17 47  1  0
 18 19  2  0
 18 48  1  0
 19 20  1  0
 19 22  1  0
 20 21  2  0
 20 49  1  0
 21 16  1  0
 21 50  1  0
 22 23  1  0
 23 24  1  0
 23 51  1  0
 23 52  1  0
 24 25  1  0
 24 53  1  0
 24 54  1  0
 25 26  2  0
 26 27  1  0
 26 30  1  0
 27 28  1  0
 28 29  2  0
 28 31  1  0
 29 25  1  0
 30 55  1  0
 30 56  1  0
 30 57  1  0
 31 32  2  0
 32 33  1  0
 32 58  1  0
 33 34  2  0
 33 59  1  0
 34 35  1  0
 34 60  1  0
 35 36  2  0
 35 61  1  0
 36 31  1  0
 36 62  1  0
M  END
> <Name>
CHEMBL3585572

> <Clean Energy>
55.738701

> <chembl_id>
CHEMBL3585572

> <chembl_pref_name>
None

> <efficacy>
1

> <Forcefield>
MMFF

> <ForcefieldBase>
MMFF

> <ForcefieldFFML>
<?xml version="1.0" encoding="UTF-8"?>
<!DOCTYPE ffml SYSTEM "Ffml.dtd">
<ffml version="1.0">
<forcefield name="MMFF" derivedFrom="MMFF" base="MMFF">
<atomTypes>
<atomType
name="C100"
element="C"
mass="12.011"
annotation=""/>
<atomType
name="O101"
element="O"
mass="16"
annotation=""/>
<atomType
name="N102"
element="N"
mass="14.007"
annotation=""/>
<atomType
name="H103"
element="H"
mass="1.008"
annotation=""/>
</atomTypes>
<parameters>
</parameters>
</forcefield>
</ffml>

> <Initial Potential Energy>
126.61326

> <Initial RMS Gradient>
27.3324

> <Minimization Criteria>
STEEPD> Minimization exiting with gradient tolerance ( 3.0000000) satisfied.

> <CHARMm Energy>
42.08151

> <Potential Energy>
42.08151

> <RMS Gradient>
0.08205

> <Bond Energy>
6.33509

> <Angle Energy>
17.221

> <STRBend>
0.01657

> <Dihedral Energy>
4.37521

> <OOPLane>
0.25544

> <Van der Waals Energy>
51.55254

> <Electrostatic Energy>
-37.67434

> <Hydrogen Bond Energy>
0

> <Solvation Free Energy>
0

> <HasGasteigerCharges>
true

> <REMARK99>
REMARK  99  MacroMolecule created from Mol2 file
REMARK  99  CHEMBL3585572
REMARK  99  PROTEIN
REMARK  99  GASTEIGER
REMARK  99
REMARK  99

$$$$
CHEMBL3335622
  SciTegic05292516403D

 55 57  0  0  0  0            999 V2000
    2.6739   -3.6093    0.1746 C   0  0
    2.5922   -4.9160    0.6452 C   0  0
    3.7175   -5.7502    0.6218 C   0  0
    4.9465   -5.2942    0.1281 C   0  0
    5.0211   -3.9553   -0.3160 C   0  0
    3.8873   -3.1263   -0.3070 C   0  0
    6.2881   -3.3320   -0.7820 C   0  0
    7.3520   -3.4885    0.0913 N   0  0
    6.2892   -2.7360   -1.8504 O   0  0
    8.6701   -3.0075   -0.0683 C   0  0
    6.0882   -6.1363    0.0220 N   0  0
    6.2353   -7.4244    0.5121 C   0  0
    7.5492   -8.0854    0.2369 C   0  0
    5.3949   -8.0555    1.1426 O   0  0
    7.5984   -9.4830    0.2284 C   0  0
    8.8063  -10.1524   -0.0010 C   0  0
   10.0034   -9.4476   -0.2290 C   0  0
    9.9389   -8.0446   -0.2018 C   0  0
    8.7323   -7.3699    0.0333 C   0  0
   11.3180  -10.2139   -0.4653 C   0  0
   11.1540  -11.1962   -1.6463 C   0  0
   12.5209   -9.3016   -0.7985 C   0  0
   11.6802  -11.0072    0.8081 C   0  0
    9.5848   -3.2878    0.9537 C   0  0
   10.9143   -2.8453    0.8653 C   0  0
   11.3310   -2.0831   -0.2294 C   0  0
   10.4236   -1.8038   -1.2494 C   0  0
    9.1056   -2.2722   -1.1736 C   0  0
   11.8337   -3.1769    1.9795 C   0  0
   11.4557   -3.2605    3.1348 O   0  0
   13.0961   -3.4369    1.5836 O   0  0
    1.7947   -2.9690    0.1871 H   0  0
    1.6450   -5.2990    1.0230 H   0  0
    3.5823   -6.7684    0.9750 H   0  0
    3.9531   -2.1003   -0.6663 H   0  0
    7.1464   -3.9535    0.9712 H   0  0
    6.8556   -5.7587   -0.5206 H   0  0
    6.6950  -10.0643    0.4075 H   0  0
    8.7977  -11.2421    0.0134 H   0  0
   10.8286   -7.4376   -0.3478 H   0  0
    8.7618   -6.2870    0.0821 H   0  0
   12.0935  -11.7201   -1.8580 H   0  0
   10.8527  -10.6689   -2.5591 H   0  0
   10.4006  -11.9657   -1.4461 H   0  0
   13.4263   -9.8924   -0.9828 H   0  0
   12.7502   -8.6164    0.0259 H   0  0
   12.3353   -8.7035   -1.6984 H   0  0
   12.6262  -11.5468    0.6823 H   0  0
   10.9162  -11.7501    1.0628 H   0  0
   11.7896  -10.3399    1.6715 H   0  0
    9.2776   -3.8492    1.8350 H   0  0
   12.3375   -1.6732   -0.2886 H   0  0
   10.7311   -1.2035   -2.1042 H   0  0
    8.4351   -2.0223   -1.9915 H   0  0
   13.2223   -3.5006    0.6191 H   0  0
  1  2  2  0
  1 32  1  0
  2  3  1  0
  2 33  1  0
  3  4  2  0
  3 34  1  0
  4  5  1  0
  4 11  1  0
  5  6  2  0
  5  7  1  0
  6  1  1  0
  6 35  1  0
  7  8  1  0
  7  9  2  0
  8 10  1  0
  8 36  1  0
 10 24  2  0
 11 12  1  0
 11 37  1  0
 12 13  1  0
 12 14  2  0
 13 15  2  0
 15 16  1  0
 15 38  1  0
 16 17  2  0
 16 39  1  0
 17 18  1  0
 17 20  1  0
 18 19  2  0
 18 40  1  0
 19 13  1  0
 19 41  1  0
 20 21  1  0
 20 22  1  0
 20 23  1  0
 21 42  1  0
 21 43  1  0
 21 44  1  0
 22 45  1  0
 22 46  1  0
 22 47  1  0
 23 48  1  0
 23 49  1  0
 23 50  1  0
 24 25  1  0
 24 51  1  0
 25 26  2  0
 25 29  1  0
 26 27  1  0
 26 52  1  0
 27 28  2  0
 27 53  1  0
 28 10  1  0
 28 54  1  0
 29 30  2  0
 29 31  1  0
 31 55  1  0
M  END
> <Name>
CHEMBL3335622

> <Clean Energy>
11.8428

> <chembl_id>
CHEMBL3335622

> <chembl_pref_name>
None

> <efficacy>
3.304843305

> <Forcefield>
MMFF

> <ForcefieldBase>
MMFF

> <ForcefieldFFML>
<?xml version="1.0" encoding="UTF-8"?>
<!DOCTYPE ffml SYSTEM "Ffml.dtd">
<ffml version="1.0">
<forcefield name="MMFF" derivedFrom="MMFF" base="MMFF">
<atomTypes>
<atomType
name="C100"
element="C"
mass="12.011"
annotation=""/>
<atomType
name="N101"
element="N"
mass="14.007"
annotation=""/>
<atomType
name="O102"
element="O"
mass="16"
annotation=""/>
<atomType
name="H103"
element="H"
mass="1.008"
annotation=""/>
</atomTypes>
<parameters>
</parameters>
</forcefield>
</ffml>

> <Initial Potential Energy>
256.25219

> <Initial RMS Gradient>
80.82771

> <Minimization Criteria>
STEEPD> Minimization exiting with gradient tolerance ( 3.0000000) satisfied.

> <CHARMm Energy>
77.26521

> <Potential Energy>
77.26521

> <RMS Gradient>
0.06028

> <Bond Energy>
8.72815

> <Angle Energy>
13.85255

> <STRBend>
2.12022

> <Dihedral Energy>
13.09948

> <OOPLane>
0.12633

> <Van der Waals Energy>
73.56954

> <Electrostatic Energy>
-34.23106

> <Hydrogen Bond Energy>
0

> <Solvation Free Energy>
0

> <HasGasteigerCharges>
true

> <REMARK99>
REMARK  99  MacroMolecule created from Mol2 file
REMARK  99  CHEMBL3335622
REMARK  99  PROTEIN
REMARK  99  GASTEIGER
REMARK  99
REMARK  99

$$$$
CHEMBL3398432
  SciTegic05292516403D

 65 68  0  0  0  0            999 V2000
    8.4805   -1.4237   -0.8165 C   0  0
    9.6015   -1.5337   -1.6355 C   0  0
    1.0756    0.6565   -1.3183 C   0  0
    1.4169    1.4000   -0.1784 C   0  0
    6.4542   -5.4926   -0.8803 C   0  0
    7.8767   -2.5779   -0.3181 C   0  0
    7.3237   -7.3996    0.2989 C   0  0
   -0.2627    0.4980   -1.6932 C   0  0
    8.4459   -6.3632    0.1213 C   0  0  2  0  0  0
    2.8227    1.6030    0.1628 C   0  0
    9.4022   -6.2737    1.3100 C   0  0
    4.9512    1.7133    0.2612 C   0  0
    3.9531   -6.7877   -0.9254 O   0  0
    6.1724   -6.8157   -0.3692 N   0  0
    8.3690   -3.8537   -0.6432 C   0  0
   10.0898   -2.7910   -1.9857 C   0  0
    6.7138   -0.0168   -0.1036 C   0  0
    3.7304  -10.6580    0.5652 C   0  0
    9.4723   -3.9460   -1.4995 C   0  0
    3.6070   -9.2641   -0.0185 C   0  0
    4.8942   -8.6378    0.0454 O   0  0
    6.3579    1.4596   -0.1346 C   0  0
    7.6569   -5.0466   -0.0557 C   0  0  1  0  0  0
    3.9082    1.0752   -0.3770 N   0  0
   -0.9535    1.7912    0.2204 C   0  0
    0.3833    1.9571    0.5909 C   0  0
    5.0317    3.5252    2.1747 C   0  0
    4.4488    2.5758    1.2111 C   0  0
    8.0660   -0.1487   -0.5514 O   0  0
   -1.2763    1.0734   -0.9284 C   0  0
    3.0877    2.4960    1.1674 O   0  0
    4.9236   -7.3744   -0.4590 C   0  0
   10.3498   -7.4415    1.3892 C   0  0
   10.2277   -8.4971    0.7894 O   0  0
   11.3752   -7.2102    2.2453 O   0  0
   10.0797   -0.6358   -2.0204 H   0  0
    1.8562    0.2156   -1.9353 H   0  0
    6.6902   -5.5874   -1.9469 H   0  0
    5.5910   -4.8277   -0.7722 H   0  0
    7.0156   -2.5096    0.3408 H   0  0
    7.5674   -8.3639   -0.1580 H   0  0
    7.0604   -7.5652    1.3494 H   0  0
   -0.5109   -0.0647   -2.5896 H   0  0
    8.9957   -6.6171   -0.7934 H   0  0
   10.0103   -5.3671    1.2088 H   0  0
    8.8505   -6.2150    2.2549 H   0  0
   10.9484   -2.8693   -2.6472 H   0  0
    6.0379   -0.5776   -0.7624 H   0  0
    6.6225   -0.3915    0.9235 H   0  0
    2.7684  -11.1776    0.5414 H   0  0
    4.0826  -10.6126    1.6010 H   0  0
    4.4642  -11.2468    0.0049 H   0  0
    9.8701   -4.9078   -1.8102 H   0  0
    3.2777   -9.3283   -1.0617 H   0  0
    2.8834   -8.6824    0.5634 H   0  0
    6.5231    1.8560   -1.1444 H   0  0
    7.0479    2.0135    0.5140 H   0  0
    7.2946   -4.7587    0.9443 H   0  0
   -1.7413    2.2350    0.8229 H   0  0
    0.6154    2.5337    1.4837 H   0  0
    4.2623    4.1594    2.6259 H   0  0
    5.7589    4.1767    1.6803 H   0  0
    5.5430    2.9858    2.9776 H   0  0
   -2.3166    0.9715   -1.2279 H   0  0
   11.3340   -6.3167    2.6412 H   0  0
  1  6  2  0
  2  1  1  0
  2 36  1  0
  3  8  1  0
  3 37  1  0
  4  3  2  0
  5 14  1  0
  5 38  1  0
  5 39  1  0
  6 15  1  0
  6 40  1  0
  7  9  1  0
  7 41  1  0
  7 42  1  0
  8 30  2  0
  8 43  1  0
  9 11  1  0
  9 23  1  0
  9 44  1  0
 10  4  1  0
 10 24  2  0
 11 33  1  0
 11 45  1  0
 11 46  1  0
 12 22  1  0
 12 28  2  0
 14  7  1  0
 14 32  1  0
 15 19  2  0
 16  2  2  0
 16 47  1  0
 17 29  1  0
 17 48  1  0
 17 49  1  0
 18 50  1  0
 18 51  1  0
 18 52  1  0
 19 16  1  0
 19 53  1  0
 20 18  1  0
 20 54  1  0
 20 55  1  0
 21 20  1  0
 22 17  1  0
 22 56  1  0
 22 57  1  0
 23  5  1  0
 23 15  1  0
 23 58  1  0
 24 12  1  0
 25 26  2  0
 25 59  1  0
 26  4  1  0
 26 60  1  0
 27 61  1  0
 27 62  1  0
 27 63  1  0
 28 27  1  0
 28 31  1  0
 29  1  1  0
 30 25  1  0
 30 64  1  0
 31 10  1  0
 32 13  2  0
 32 21  1  0
 33 34  2  0
 33 35  1  0
 35 65  1  0
M  END
> <Name>
CHEMBL3398432

> <Clean Energy>
49.060902

> <chembl_id>
CHEMBL3398432

> <chembl_pref_name>
None

> <efficacy>
1.04

> <Forcefield>
MMFF

> <ForcefieldBase>
MMFF

> <ForcefieldFFML>
<?xml version="1.0" encoding="UTF-8"?>
<!DOCTYPE ffml SYSTEM "Ffml.dtd">
<ffml version="1.0">
<forcefield name="MMFF" derivedFrom="MMFF" base="MMFF">
<atomTypes>
<atomType
name="C100"
element="C"
mass="12.011"
annotation=""/>
<atomType
name="O101"
element="O"
mass="16"
annotation=""/>
<atomType
name="N102"
element="N"
mass="14.007"
annotation=""/>
<atomType
name="H103"
element="H"
mass="1.008"
annotation=""/>
</atomTypes>
<parameters>
</parameters>
</forcefield>
</ffml>

> <Initial Potential Energy>
78.35417

> <Initial RMS Gradient>
26.26319

> <Minimization Criteria>
STEEPD> Minimization exiting with gradient tolerance ( 3.0000000) satisfied.

> <CHARMm Energy>
-10.48368

> <Potential Energy>
-10.48368

> <RMS Gradient>
0.02271

> <Bond Energy>
4.6708

> <Angle Energy>
17.69154

> <STRBend>
-0.31528

> <Dihedral Energy>
-2.26735

> <OOPLane>
0.06352

> <Van der Waals Energy>
55.24165

> <Electrostatic Energy>
-85.56857

> <Hydrogen Bond Energy>
0

> <Solvation Free Energy>
0

> <HasGasteigerCharges>
true

> <REMARK99>
REMARK  99  MacroMolecule created from Mol2 file
REMARK  99  CHEMBL3398432
REMARK  99  PROTEIN
REMARK  99  GASTEIGER
REMARK  99
REMARK  99

$$$$
CHEMBL1935495
  SciTegic05292516403D

 69 71  0  0  0  0            999 V2000
    9.8133   -4.3570    1.9380 C   0  0
    8.8891   -3.5176    2.5145 C   0  0
    7.7595   -3.5469    1.7485 O   0  0
    8.0364   -4.4227    0.7123 C   0  0
    9.2569   -4.9321    0.8186 N   0  0
    8.8599   -2.6565    3.7084 C   0  0
   11.2016   -4.6839    2.3539 C   0  0
   12.2510   -3.8913    1.5769 C   0  0
   13.5465   -4.2808    2.0610 O   0  0
   14.5395   -4.0507    1.1501 C   0  0
   15.3355   -5.1384    0.8085 C   0  0
   15.8242   -2.6486   -0.3379 C   0  0
   14.7951   -2.7997    0.5970 C   0  0
    7.1382   -4.7154   -0.3483 C   0  0
    5.9842   -4.0523   -0.5087 C   0  0
    5.0332   -4.3110   -1.6435 C   0  0
   16.6081   -3.7464   -0.7126 C   0  0
   16.3636   -4.9967   -0.1344 C   0  0
   17.1026   -6.2104   -0.6019 C   0  0
   18.4305   -5.9686   -1.1727 N   0  0
   18.8394   -4.5908   -1.5683 C   0  0  1  0  0  0
   17.6530   -3.6372   -1.7918 C   0  0
   19.3020   -7.0052   -1.4943 C   0  0
   18.8332   -8.3765   -1.1972 C   0  0
   20.4352   -6.8128   -1.9229 O   0  0
   19.6350   -9.2081   -0.5180 C   0  0
   19.1829  -10.5084   -0.0843 C   0  0
   19.9398  -11.3288    0.6553 C   0  0
   19.4857  -12.6689    1.1360 C   0  0
   19.8715   -3.9401   -0.6211 C   0  0
   20.2517   -4.7107    0.4270 O   0  0
   20.3600   -2.8297   -0.8003 O   0  0
    3.7047   -4.9508   -1.1963 C   0  0
    2.8908   -4.0320   -0.2813 C   0  0
    2.8694   -5.3235   -2.4241 C   0  0
    8.3898   -3.1824    4.5448 H   0  0
    8.2931   -1.7404    3.5154 H   0  0
    9.8717   -2.3683    4.0091 H   0  0
   11.3291   -4.5045    3.4287 H   0  0
   11.3816   -5.7576    2.2160 H   0  0
   12.1513   -4.0992    0.5027 H   0  0
   12.1123   -2.8163    1.7446 H   0  0
   15.1257   -6.1068    1.2571 H   0  0
   16.0047   -1.6692   -0.7767 H   0  0
   14.2058   -1.9355    0.8859 H   0  0
    7.4462   -5.4889   -1.0437 H   0  0
    5.7082   -3.2638    0.1892 H   0  0
    4.8377   -3.3591   -2.1533 H   0  0
    5.5125   -4.9619   -2.3864 H   0  0
   17.2223   -6.9086    0.2351 H   0  0
   16.5014   -6.7060   -1.3742 H   0  0
   19.3783   -4.6832   -2.5216 H   0  0
   17.1642   -3.8929   -2.7411 H   0  0
   18.0007   -2.6010   -1.8786 H   0  0
   17.8336   -8.6547   -1.4996 H   0  0
   20.6415   -8.8970   -0.2384 H   0  0
   18.1689  -10.8051   -0.3519 H   0  0
   20.9555  -11.0507    0.9337 H   0  0
   19.5236  -12.7048    2.2290 H   0  0
   20.1452  -13.4485    0.7428 H   0  0
   18.4622  -12.8974    0.8224 H   0  0
   19.7629   -5.5564    0.4045 H   0  0
    3.9229   -5.8751   -0.6456 H   0  0
    1.9302   -4.4923   -0.0253 H   0  0
    2.6858   -3.0709   -0.7650 H   0  0
    3.4165   -3.8358    0.6582 H   0  0
    1.9350   -5.8111   -2.1263 H   0  0
    3.4157   -6.0189   -3.0702 H   0  0
    2.6161   -4.4375   -3.0164 H   0  0
  1  2  2  0
  1  7  1  0
  2  3  1  0
  2  6  1  0
  3  4  1  0
  4  5  2  0
  4 14  1  0
  5  1  1  0
  6 36  1  0
  6 37  1  0
  6 38  1  0
  7  8  1  0
  7 39  1  0
  7 40  1  0
  8  9  1  0
  8 41  1  0
  8 42  1  0
  9 10  1  0
 10 11  2  0
 11 18  1  0
 11 43  1  0
 12 13  2  0
 12 44  1  0
 13 10  1  0
 13 45  1  0
 14 15  2  0
 14 46  1  0
 15 16  1  0
 15 47  1  0
 16 33  1  0
 16 48  1  0
 16 49  1  0
 17 12  1  0
 17 18  2  0
 17 22  1  0
 18 19  1  0
 19 20  1  0
 19 50  1  0
 19 51  1  0
 20 21  1  0
 20 23  1  0
 21 22  1  0
 21 30  1  0
 21 52  1  0
 22 53  1  0
 22 54  1  0
 23 24  1  0
 23 25  2  0
 24 26  2  0
 24 55  1  0
 26 27  1  0
 26 56  1  0
 27 28  2  0
 27 57  1  0
 28 29  1  0
 28 58  1  0
 29 59  1  0
 29 60  1  0
 29 61  1  0
 30 31  1  0
 30 32  2  0
 31 62  1  0
 33 34  1  0
 33 35  1  0
 33 63  1  0
 34 64  1  0
 34 65  1  0
 34 66  1  0
 35 67  1  0
 35 68  1  0
 35 69  1  0
M  END
> <Name>
CHEMBL1935495

> <Clean Energy>
53.468102

> <chembl_id>
CHEMBL1935495

> <chembl_pref_name>
None

> <efficacy>
1.084210526

> <Forcefield>
MMFF

> <ForcefieldBase>
MMFF

> <ForcefieldFFML>
<?xml version="1.0" encoding="UTF-8"?>
<!DOCTYPE ffml SYSTEM "Ffml.dtd">
<ffml version="1.0">
<forcefield name="MMFF" derivedFrom="MMFF" base="MMFF">
<atomTypes>
<atomType
name="C100"
element="C"
mass="12.011"
annotation=""/>
<atomType
name="O101"
element="O"
mass="16"
annotation=""/>
<atomType
name="N102"
element="N"
mass="14.007"
annotation=""/>
<atomType
name="H103"
element="H"
mass="1.008"
annotation=""/>
</atomTypes>
<parameters>
</parameters>
</forcefield>
</ffml>

> <Initial Potential Energy>
115.02346

> <Initial RMS Gradient>
20.40055

> <Minimization Criteria>
CONJUG> Minimization exiting with gradient tolerance ( 0.0100000) satisfied.

> <CHARMm Energy>
18.91344

> <Potential Energy>
18.91344

> <RMS Gradient>
0.0082

> <Bond Energy>
5.97025

> <Angle Energy>
15.02554

> <STRBend>
0.30003

> <Dihedral Energy>
-2.85883

> <OOPLane>
0.30843

> <Van der Waals Energy>
52.1367

> <Electrostatic Energy>
-51.96867

> <Hydrogen Bond Energy>
0

> <Solvation Free Energy>
0

> <HasGasteigerCharges>
true

> <REMARK99>
REMARK  99  MacroMolecule created from Mol2 file
REMARK  99  CHEMBL1935495
REMARK  99  PROTEIN
REMARK  99  GASTEIGER
REMARK  99
REMARK  99

$$$$
CHEMBL3597392
  SciTegic05292516403D

 70 74  0  0  0  0            999 V2000
   -1.6660    0.8814   -0.3726 C   0  0
   -1.5614   -0.5082   -0.3007 C   0  0
   -0.3546   -1.1765   -0.5520 C   0  0
   -0.5291    1.6372   -0.6787 C   0  0
    0.7088    0.9914   -0.9376 C   0  0
    0.7708   -0.4063   -0.8779 C   0  0
    2.0667   -0.7742   -1.1900 N   0  0
    2.8154    0.3470   -1.4501 C   0  0
    2.0210    1.4631   -1.2703 C   0  0
    2.4653    2.8876   -1.4077 C   0  0
    3.5682    3.2874   -0.4469 C   0  0
    3.5495    2.6799    0.7626 O   0  0
    4.4042    4.1423   -0.7150 O   0  0
   -2.9185    1.3799   -0.1153 O   0  0
   -3.1498    2.7704   -0.3718 C   0  0
   -4.6327    3.1054   -0.1470 C   0  0
   -4.8338    4.4965   -0.4190 O   0  0
   -6.0613    5.0503   -0.1757 C   0  0
   -6.0825    6.4477   -0.2624 C   0  0
   -7.2535    7.1610   -0.0278 C   0  0
   -8.4233    6.4725    0.2783 C   0  0
   -8.4298    5.0760    0.3387 C   0  0
   -7.2420    4.3624    0.1235 C   0  0
    2.5777   -2.1386   -1.3224 C   0  0
    3.2919   -2.6019   -0.0767 C   0  0
    4.6458   -2.2943    0.1267 C   0  0
    5.3024   -2.7153    1.2837 C   0  0
    4.6173   -3.4512    2.2477 C   0  0
    3.2742   -3.7665    2.0581 C   0  0
    2.6134   -3.3413    0.9043 C   0  0
   -9.6533    4.5386    0.6355 O   0  0
   -9.8444    3.1545    0.3421 C   0  0
  -11.3201    2.8289    0.4416 C   0  0
  -11.7512    1.6623    1.0882 C   0  0
  -13.1114    1.3438    1.1534 C   0  0
  -14.0674    2.1874    0.5766 C   0  0
  -13.6408    3.3397   -0.0910 C   0  0
  -12.2808    3.6566   -0.1580 C   0  0
  -15.5233    1.8295    0.6188 C   0  0
   -2.4414   -1.0982   -0.0513 H   0  0
   -0.3067   -2.2592   -0.4969 H   0  0
   -0.5722    2.7187   -0.7298 H   0  0
    3.8604    0.2621   -1.7276 H   0  0
    2.8397    3.0344   -2.4280 H   0  0
    1.6304    3.5786   -1.2538 H   0  0
    2.8323    2.0203    0.8583 H   0  0
   -2.5416    3.3850    0.3032 H   0  0
   -2.8818    3.0189   -1.4064 H   0  0
   -5.2483    2.4943   -0.8177 H   0  0
   -4.9050    2.8711    0.8894 H   0  0
   -5.1679    6.9865   -0.5036 H   0  0
   -7.2589    8.2463   -0.0850 H   0  0
   -9.3418    7.0242    0.4617 H   0  0
   -7.2382    3.2834    0.1933 H   0  0
    1.7418   -2.8006   -1.5729 H   0  0
    3.2558   -2.1542   -2.1846 H   0  0
    5.2046   -1.7263   -0.6144 H   0  0
    6.3531   -2.4754    1.4318 H   0  0
    5.1343   -3.7851    3.1444 H   0  0
    2.7461   -4.3479    2.8099 H   0  0
    1.5625   -3.5913    0.7784 H   0  0
   -9.5113    2.9159   -0.6757 H   0  0
   -9.2819    2.5550    1.0674 H   0  0
  -11.0310    0.9894    1.5483 H   0  0
  -13.4231    0.4320    1.6594 H   0  0
  -14.3646    4.0002   -0.5634 H   0  0
  -11.9754    4.5622   -0.6790 H   0  0
  -16.1464    2.7299    0.6304 H   0  0
  -15.7598    1.2597    1.5235 H   0  0
  -15.7861    1.2281   -0.2569 H   0  0
  1  2  2  0
  1 14  1  0
  2  3  1  0
  2 40  1  0
  3  6  2  0
  3 41  1  0
  4  1  1  0
  4 42  1  0
  5  4  2  0
  5  6  1  0
  6  7  1  0
  7  8  1  0
  7 24  1  0
  8  9  2  0
  8 43  1  0
  9  5  1  0
  9 10  1  0
 10 11  1  0
 10 44  1  0
 10 45  1  0
 11 12  1  0
 11 13  2  0
 12 46  1  0
 14 15  1  0
 15 16  1  0
 15 47  1  0
 15 48  1  0
 16 17  1  0
 16 49  1  0
 16 50  1  0
 17 18  1  0
 18 19  2  0
 19 20  1  0
 19 51  1  0
 20 21  2  0
 20 52  1  0
 21 22  1  0
 21 53  1  0
 22 23  2  0
 22 31  1  0
 23 18  1  0
 23 54  1  0
 24 25  1  0
 24 55  1  0
 24 56  1  0
 25 26  2  0
 26 27  1  0
 26 57  1  0
 27 28  2  0
 27 58  1  0
 28 29  1  0
 28 59  1  0
 29 30  2  0
 29 60  1  0
 30 25  1  0
 30 61  1  0
 31 32  1  0
 32 33  1  0
 32 62  1  0
 32 63  1  0
 33 34  2  0
 34 35  1  0
 34 64  1  0
 35 36  2  0
 35 65  1  0
 36 37  1  0
 36 39  1  0
 37 38  2  0
 37 66  1  0
 38 33  1  0
 38 67  1  0
 39 68  1  0
 39 69  1  0
 39 70  1  0
M  END
> <Name>
CHEMBL3597392

> <Clean Energy>
32.2374

> <chembl_id>
CHEMBL3597392

> <chembl_pref_name>
None

> <efficacy>
1.008

> <Forcefield>
MMFF

> <ForcefieldBase>
MMFF

> <ForcefieldFFML>
<?xml version="1.0" encoding="UTF-8"?>
<!DOCTYPE ffml SYSTEM "Ffml.dtd">
<ffml version="1.0">
<forcefield name="MMFF" derivedFrom="MMFF" base="MMFF">
<atomTypes>
<atomType
name="C100"
element="C"
mass="12.011"
annotation=""/>
<atomType
name="N101"
element="N"
mass="14.007"
annotation=""/>
<atomType
name="O102"
element="O"
mass="16"
annotation=""/>
<atomType
name="H103"
element="H"
mass="1.008"
annotation=""/>
</atomTypes>
<parameters>
</parameters>
</forcefield>
</ffml>

> <Initial Potential Energy>
248.85711

> <Initial RMS Gradient>
33.31319

> <Minimization Criteria>
STEEPD> Minimization exiting with gradient tolerance ( 3.0000000) satisfied.

> <CHARMm Energy>
111.55529

> <Potential Energy>
111.55529

> <RMS Gradient>
0.03263

> <Bond Energy>
8.07991

> <Angle Energy>
25.84511

> <STRBend>
-0.22872

> <Dihedral Energy>
-0.80705

> <OOPLane>
0.09391

> <Van der Waals Energy>
77.58436

> <Electrostatic Energy>
0.98776

> <Hydrogen Bond Energy>
0

> <Solvation Free Energy>
0

> <HasGasteigerCharges>
true

> <REMARK99>
REMARK  99  MacroMolecule created from Mol2 file
REMARK  99  CHEMBL3597392
REMARK  99  PROTEIN
REMARK  99  GASTEIGER
REMARK  99
REMARK  99

$$$$
CHEMBL5094105
  SciTegic05292516403D

 55 57  0  0  0  0            999 V2000
   24.2417   -7.5049    0.9360 C   0  0
   23.2132   -6.4311    0.5475 C   0  0
   23.0454   -6.4030   -0.9821 C   0  0
   18.7943   -6.1816   -0.3747 C   0  0
   18.4209   -7.4952   -0.6888 C   0  0
   19.2711   -8.5350   -0.3069 C   0  0
   20.4716   -8.2819    0.3786 C   0  0
   20.8440   -6.9499    0.6473 C   0  0
   19.9685   -5.8938    0.3432 C   0  0
   22.0141   -6.7184    1.3150 O   0  0
   23.7715   -5.0834    1.0659 C   0  0
   24.8674   -4.6197    0.4168 O   0  0
   23.3239   -4.4659    2.0226 O   0  0
   17.1091   -7.7892   -1.3908 C   0  0
   15.9996   -7.1284   -0.7487 N   0  0
   15.4809   -5.8905   -1.1412 C   0  0
   14.6977   -5.4766   -0.0808 N   0  0
   14.7789   -6.4780    0.8246 C   0  0
   15.5320   -7.4796    0.4940 N   0  0
   15.7632   -5.3102   -2.1793 O   0  0
   14.0468   -4.2348    0.0617 C   0  0
   13.8689   -3.3801   -1.0335 C   0  0
   13.2559   -2.1306   -0.8927 C   0  0
   12.8115   -1.7041    0.3537 C   0  0
   12.9871   -2.5450    1.4534 C   0  0
   13.5882   -3.7995    1.3110 C   0  0
   21.3155   -9.4537    0.7929 C   0  0
   20.2120   -4.4670    0.7801 C   0  0
   21.2367   -3.8936    0.0876 F   0  0
   19.1372   -3.6478    0.5857 F   0  0
   20.5185   -4.3596    2.1003 F   0  0
   12.2080   -0.5152    0.6349 O   0  0
   11.9996    0.3832   -0.4373 C   0  0
   11.1236   -0.1214   -1.3344 F   0  0
   11.4641    1.5163    0.0661 F   0  0
   13.1481    0.7165   -1.0597 F   0  0
   23.9349   -8.4947    0.5877 H   0  0
   24.3444   -7.5705    2.0257 H   0  0
   25.2325   -7.3005    0.5169 H   0  0
   22.3975   -5.5802   -1.3004 H   0  0
   22.6078   -7.3331   -1.3596 H   0  0
   24.0024   -6.2729   -1.4979 H   0  0
   18.1378   -5.3577   -0.6553 H   0  0
   18.9796   -9.5619   -0.5185 H   0  0
   25.2679   -5.1828   -0.2706 H   0  0
   17.1868   -7.4559   -2.4317 H   0  0
   16.8954   -8.8637   -1.3929 H   0  0
   14.2298   -6.4139    1.7704 H   0  0
   14.1917   -3.6596   -2.0334 H   0  0
   13.1514   -1.5249   -1.7884 H   0  0
   12.6570   -2.2199    2.4388 H   0  0
   13.7267   -4.3900    2.2114 H   0  0
   22.0304   -9.6977    0.0020 H   0  0
   20.6931  -10.3360    0.9792 H   0  0
   21.8523   -9.2508    1.7245 H   0  0
  1 37  1  0
  1 38  1  0
  1 39  1  0
  2  1  1  0
  2 11  1  0
  3  2  1  0
  3 40  1  0
  3 41  1  0
  3 42  1  0
  4  5  2  0
  4 43  1  0
  5  6  1  0
  5 14  1  0
  6  7  2  0
  6 44  1  0
  7  8  1  0
  7 27  1  0
  8  9  2  0
  8 10  1  0
  9  4  1  0
  9 28  1  0
 10  2  1  0
 11 12  1  0
 11 13  2  0
 12 45  1  0
 14 15  1  0
 14 46  1  0
 14 47  1  0
 15 16  1  0
 16 17  1  0
 16 20  2  0
 17 18  1  0
 17 21  1  0
 18 19  2  0
 18 48  1  0
 19 15  1  0
 21 22  2  0
 22 23  1  0
 22 49  1  0
 23 24  2  0
 23 50  1  0
 24 25  1  0
 24 32  1  0
 25 26  2  0
 25 51  1  0
 26 21  1  0
 26 52  1  0
 27 53  1  0
 27 54  1  0
 27 55  1  0
 28 29  1  0
 28 30  1  0
 28 31  1  0
 32 33  1  0
 33 34  1  0
 33 35  1  0
 33 36  1  0
M  END
> <Name>
CHEMBL5094105

> <Clean Energy>
75.442802

> <chembl_id>
CHEMBL5094105

> <chembl_pref_name>
None

> <efficacy>
0.95

> <Forcefield>
MMFF

> <ForcefieldBase>
MMFF

> <ForcefieldFFML>
<?xml version="1.0" encoding="UTF-8"?>
<!DOCTYPE ffml SYSTEM "Ffml.dtd">
<ffml version="1.0">
<forcefield name="MMFF" derivedFrom="MMFF" base="MMFF">
<atomTypes>
<atomType
name="C100"
element="C"
mass="12.011"
annotation=""/>
<atomType
name="O101"
element="O"
mass="16"
annotation=""/>
<atomType
name="N102"
element="N"
mass="14.007"
annotation=""/>
<atomType
name="F103"
element="F"
mass="18.998"
annotation=""/>
<atomType
name="H104"
element="H"
mass="1.008"
annotation=""/>
</atomTypes>
<parameters>
</parameters>
</forcefield>
</ffml>

> <Initial Potential Energy>
253.87614

> <Initial RMS Gradient>
31.46111

> <Minimization Criteria>
STEEPD> Minimization exiting with gradient tolerance ( 3.0000000) satisfied.

> <CHARMm Energy>
115.36737

> <Potential Energy>
115.36737

> <RMS Gradient>
0.02618

> <Bond Energy>
6.9376

> <Angle Energy>
37.45485

> <STRBend>
-0.79418

> <Dihedral Energy>
11.21786

> <OOPLane>
0.44117

> <Van der Waals Energy>
58.06544

> <Electrostatic Energy>
2.04463

> <Hydrogen Bond Energy>
0

> <Solvation Free Energy>
0

> <HasGasteigerCharges>
true

> <REMARK99>
REMARK  99  MacroMolecule created from Mol2 file
REMARK  99  CHEMBL5094105
REMARK  99  PROTEIN
REMARK  99  GASTEIGER
REMARK  99
REMARK  99

$$$$
CHEMBL1172000
  SciTegic05292516403D

 69 71  0  0  0  0            999 V2000
    3.7676    6.7686   -0.5044 C   0  0
    3.0983    5.4028   -0.6389 C   0  0
    3.9657    4.4589    0.1923 C   0  0
    5.3721    4.9896   -0.0744 C   0  0
    5.1990    6.5023   -0.0393 C   0  0
   -4.2468   -7.4368   -0.3294 C   0  0
   -2.9517   -6.8904   -0.9136 C   0  0
   -2.9725   -5.4197   -0.5029 C   0  0
   -3.4779   -5.4904    0.9383 C   0  0
   -4.4896   -6.6360    0.9488 C   0  0
   -0.1933   -1.4022   -0.1904 C   0  0
    1.0504   -0.8538   -0.3759 C   0  0
    1.1544    0.4729   -0.0501 C   0  0
    0.1340    1.2082    0.4185 N   0  0
   -1.0312    0.5674    0.5608 C   0  0
   -1.2543   -0.7188    0.2721 N   0  0
   -0.3205   -2.7391   -0.5147 O   0  0
   -1.6288   -3.2680   -0.2772 C   0  0
    2.3935    1.0568   -0.2278 O   0  0
    2.4095    2.4536    0.0863 C   0  0
   -2.3998    1.5033    1.1840 S   0  0
   -2.4686    2.7933   -0.1290 C   0  0  1  0  0  0
   -3.7397    2.6554   -0.9658 C   0  0
   -4.6150    1.7045   -0.5679 O   0  0
   -3.9734    3.3611   -1.9396 O   0  0
   -2.3985    4.2053    0.4791 C   0  0
   -1.0139    4.5526    1.0436 C   0  0
   -0.9267    5.9650    1.6287 C   0  0
   -1.0539    7.0671    0.5884 C   0  0
    3.8178    2.9830   -0.1720 C   0  0
   -1.6098   -4.7473   -0.6607 C   0  0
    3.7479    7.3068   -1.4579 H   0  0
    3.2422    7.3875    0.2318 H   0  0
    2.0606    5.4297   -0.2925 H   0  0
    3.0910    5.0985   -1.6927 H   0  0
    3.7285    4.5973    1.2561 H   0  0
    6.0965    4.6434    0.6694 H   0  0
    5.7279    4.6783   -1.0643 H   0  0
    5.3282    6.8726    0.9845 H   0  0
    5.9364    7.0099   -0.6687 H   0  0
   -5.0731   -7.2703   -1.0307 H   0  0
   -4.1876   -8.5126   -0.1379 H   0  0
   -2.0927   -7.4100   -0.4717 H   0  0
   -2.9053   -7.0200   -1.9993 H   0  0
   -3.7132   -4.8898   -1.1173 H   0  0
   -2.6570   -5.7209    1.6284 H   0  0
   -3.9321   -4.5497    1.2652 H   0  0
   -4.3569   -7.2579    1.8403 H   0  0
   -5.5159   -6.2534    0.9674 H   0  0
    1.8857   -1.4249   -0.7532 H   0  0
   -1.8857   -3.1636    0.7836 H   0  0
   -2.3656   -2.7398   -0.8948 H   0  0
    1.6943    2.9836   -0.5541 H   0  0
    2.1515    2.6057    1.1417 H   0  0
   -1.6400    2.6541   -0.8329 H   0  0
   -4.2916    1.2178    0.2196 H   0  0
   -2.6489    4.9329   -0.3023 H   0  0
   -3.1651    4.3267    1.2555 H   0  0
   -0.7504    3.8477    1.8398 H   0  0
   -0.2591    4.4385    0.2570 H   0  0
   -1.6930    6.0988    2.4007 H   0  0
    0.0453    6.0715    2.1253 H   0  0
   -0.8745    8.0425    1.0518 H   0  0
   -2.0541    7.0906    0.1472 H   0  0
   -0.3231    6.9367   -0.2155 H   0  0
    4.5365    2.3872    0.4050 H   0  0
    4.0775    2.8159   -1.2253 H   0  0
   -1.2715   -4.8424   -1.7007 H   0  0
   -0.8515   -5.2654   -0.0593 H   0  0
  1  2  1  0
  1 32  1  0
  1 33  1  0
  2  3  1  0
  2 34  1  0
  2 35  1  0
  3  4  1  0
  3 36  1  0
  4  5  1  0
  4 37  1  0
  4 38  1  0
  5  1  1  0
  5 39  1  0
  5 40  1  0
  6  7  1  0
  6 41  1  0
  6 42  1  0
  7  8  1  0
  7 43  1  0
  7 44  1  0
  8  9  1  0
  8 45  1  0
  9 10  1  0
  9 46  1  0
  9 47  1  0
 10  6  1  0
 10 48  1  0
 10 49  1  0
 11 12  2  0
 11 17  1  0
 12 13  1  0
 12 50  1  0
 13 14  2  0
 13 19  1  0
 14 15  1  0
 15 16  2  0
 15 21  1  0
 16 11  1  0
 17 18  1  0
 18 31  1  0
 18 51  1  0
 18 52  1  0
 19 20  1  0
 20 30  1  0
 20 53  1  0
 20 54  1  0
 21 22  1  0
 22 23  1  0
 22 26  1  0
 22 55  1  0
 23 24  1  0
 23 25  2  0
 24 56  1  0
 26 27  1  0
 26 57  1  0
 26 58  1  0
 27 28  1  0
 27 59  1  0
 27 60  1  0
 28 29  1  0
 28 61  1  0
 28 62  1  0
 29 63  1  0
 29 64  1  0
 29 65  1  0
 30  3  1  0
 30 66  1  0
 30 67  1  0
 31  8  1  0
 31 68  1  0
 31 69  1  0
M  END
> <Name>
CHEMBL1172000

> <Clean Energy>
46.783501

> <chembl_id>
CHEMBL1172000

> <chembl_pref_name>
None

> <efficacy>
1.206077873

> <Forcefield>
MMFF

> <ForcefieldBase>
MMFF

> <ForcefieldFFML>
<?xml version="1.0" encoding="UTF-8"?>
<!DOCTYPE ffml SYSTEM "Ffml.dtd">
<ffml version="1.0">
<forcefield name="MMFF" derivedFrom="MMFF" base="MMFF">
<atomTypes>
<atomType
name="C100"
element="C"
mass="12.011"
annotation=""/>
<atomType
name="N101"
element="N"
mass="14.007"
annotation=""/>
<atomType
name="O102"
element="O"
mass="16"
annotation=""/>
<atomType
name="S103"
element="S"
mass="32.066"
annotation=""/>
<atomType
name="H104"
element="H"
mass="1.008"
annotation=""/>
</atomTypes>
<parameters>
</parameters>
</forcefield>
</ffml>

> <Initial Potential Energy>
0.11434

> <Initial RMS Gradient>
19.69687

> <Minimization Criteria>
STEEPD> Minimization exiting with gradient tolerance ( 3.0000000) satisfied.

> <CHARMm Energy>
-70.85323

> <Potential Energy>
-70.85323

> <RMS Gradient>
0.08803

> <Bond Energy>
3.24614

> <Angle Energy>
18.77146

> <STRBend>
0.28962

> <Dihedral Energy>
-9.41167

> <OOPLane>
0.00121

> <Van der Waals Energy>
44.89445

> <Electrostatic Energy>
-128.64443

> <Hydrogen Bond Energy>
0

> <Solvation Free Energy>
0

> <HasGasteigerCharges>
true

> <REMARK99>
REMARK  99  MacroMolecule created from Mol2 file
REMARK  99  CHEMBL1172000
REMARK  99  PROTEIN
REMARK  99  GASTEIGER
REMARK  99
REMARK  99

$$$$
CHEMBL458867
  SciTegic05292516403D

 53 56  0  0  0  0            999 V2000
    4.2709  -10.2401    1.5028 C   0  0
    4.1051  -11.1946    0.4952 C   0  0
    5.1765  -11.5143   -0.3413 C   0  0
    5.4756   -9.5418    1.6211 C   0  0
    6.5284   -9.8186    0.7492 C   0  0
    6.3757  -10.8182   -0.2056 C   0  0
    7.4410  -11.1459   -1.0713 O   0  0
    8.6748  -10.4840   -1.0206 C   0  0
    8.7731   -9.3770   -0.0452 C   0  0
    7.7701   -9.0734    0.7937 C   0  0
    9.9689   -8.5229    0.0650 C   0  0
   11.0945   -9.2395   -0.1472 O   0  0
    9.9273   -7.3376    0.3673 O   0  0
   12.3075   -8.4849   -0.0723 C   0  0
    9.6002  -10.8018   -1.7638 O   0  0
    2.9417  -11.8839    0.2830 O   0  0
    1.7416  -11.1153    0.4348 C   0  0
    0.8190  -11.4622   -0.7260 C   0  0
   -0.4189  -10.6467   -0.7208 C   0  0
   -0.6071   -9.3296   -1.0808 C   0  0
   -1.9314   -9.0345   -0.9132 O   0  0
   -2.4912  -10.2072   -0.4647 C   0  0
   -1.6152  -11.1846   -0.3137 N   0  0
    0.2711   -8.2510   -1.5687 C   0  0
   -3.9267  -10.2282   -0.2266 C   0  0
   -4.7401   -9.1071   -0.4260 C   0  0
   -6.1161   -9.1852   -0.1990 C   0  0
   -6.6932  -10.3833    0.2293 C   0  0
   -5.8972  -11.5092    0.4333 C   0  0
   -4.5222  -11.4224    0.2069 C   0  0
   -6.3269  -12.7402    0.8434 O   0  0
   -7.7211  -12.8937    1.0637 C   0  0
    3.4703  -10.0250    2.2050 H   0  0
    5.0620  -12.2806   -1.1020 H   0  0
    5.5723   -8.7819    2.3932 H   0  0
    7.8550   -8.2579    1.5078 H   0  0
   12.4383   -8.0732    0.9332 H   0  0
   12.3085   -7.6874   -0.8218 H   0  0
   13.1403   -9.1613   -0.2829 H   0  0
    1.2795  -11.3751    1.3941 H   0  0
    1.9345  -10.0349    0.4252 H   0  0
    1.3506  -11.3203   -1.6756 H   0  0
    0.5694  -12.5298   -0.6890 H   0  0
   -0.2229   -7.6759   -2.3580 H   0  0
    1.2023   -8.6549   -1.9776 H   0  0
    0.5242   -7.5688   -0.7515 H   0  0
   -4.3147   -8.1651   -0.7641 H   0  0
   -6.7391   -8.3090   -0.3591 H   0  0
   -7.7646  -10.4051    0.3925 H   0  0
   -3.9061  -12.3073    0.3644 H   0  0
   -7.9002  -13.9292    1.3686 H   0  0
   -8.2896  -12.7150    0.1449 H   0  0
   -8.0664  -12.2436    1.8744 H   0  0
  1  2  2  0
  1 33  1  0
  2  3  1  0
  2 16  1  0
  3  6  2  0
  3 34  1  0
  4  1  1  0
  4 35  1  0
  5  4  2  0
  5  6  1  0
  5 10  1  0
  6  7  1  0
  7  8  1  0
  8  9  1  0
  8 15  2  0
  9 10  2  0
  9 11  1  0
 10 36  1  0
 11 12  1  0
 11 13  2  0
 12 14  1  0
 14 37  1  0
 14 38  1  0
 14 39  1  0
 16 17  1  0
 17 18  1  0
 17 40  1  0
 17 41  1  0
 18 19  1  0
 18 42  1  0
 18 43  1  0
 19 20  2  0
 20 21  1  0
 20 24  1  0
 21 22  1  0
 22 23  2  0
 22 25  1  0
 23 19  1  0
 24 44  1  0
 24 45  1  0
 24 46  1  0
 25 26  2  0
 26 27  1  0
 26 47  1  0
 27 28  2  0
 27 48  1  0
 28 29  1  0
 28 49  1  0
 29 30  2  0
 29 31  1  0
 30 25  1  0
 30 50  1  0
 31 32  1  0
 32 51  1  0
 32 52  1  0
 32 53  1  0
M  END
> <Name>
CHEMBL458867

> <Clean Energy>
24.5077

> <chembl_id>
CHEMBL458867

> <chembl_pref_name>
None

> <efficacy>
1.09

> <Forcefield>
MMFF

> <ForcefieldBase>
MMFF

> <ForcefieldFFML>
<?xml version="1.0" encoding="UTF-8"?>
<!DOCTYPE ffml SYSTEM "Ffml.dtd">
<ffml version="1.0">
<forcefield name="MMFF" derivedFrom="MMFF" base="MMFF">
<atomTypes>
<atomType
name="C100"
element="C"
mass="12.011"
annotation=""/>
<atomType
name="O101"
element="O"
mass="16"
annotation=""/>
<atomType
name="N102"
element="N"
mass="14.007"
annotation=""/>
<atomType
name="H103"
element="H"
mass="1.008"
annotation=""/>
</atomTypes>
<parameters>
</parameters>
</forcefield>
</ffml>

> <Initial Potential Energy>
120.68235

> <Initial RMS Gradient>
24.92648

> <Minimization Criteria>
STEEPD> Minimization exiting with gradient tolerance ( 3.0000000) satisfied.

> <CHARMm Energy>
53.43876

> <Potential Energy>
53.43876

> <RMS Gradient>
0.06369

> <Bond Energy>
4.45239

> <Angle Energy>
26.4569

> <STRBend>
-0.60339

> <Dihedral Energy>
6.53711

> <OOPLane>
0.08291

> <Van der Waals Energy>
57.87921

> <Electrostatic Energy>
-41.36637

> <Hydrogen Bond Energy>
0

> <Solvation Free Energy>
0

> <HasGasteigerCharges>
true

> <REMARK99>
REMARK  99  MacroMolecule created from Mol2 file
REMARK  99  CHEMBL458867
REMARK  99  PROTEIN
REMARK  99  GASTEIGER
REMARK  99
REMARK  99

$$$$
CHEMBL255930
  SciTegic05292516403D

 67 71  0  0  0  0            999 V2000
    2.8957    2.4102   -0.4337 C   0  0
    1.5473    2.5221   -0.0834 C   0  0
    0.9883    1.6331    0.8323 C   0  0
    1.7735    0.6326    1.3997 C   0  0
    3.1215    0.5229    1.0494 C   0  0
    3.7019    1.4086    0.1278 C   0  0
    5.1107    1.2636   -0.2266 C   0  0
    6.0156    0.4267    0.2499 N   0  0
    7.1558    0.6960   -0.4742 C   0  0
    6.8969    1.7149   -1.3665 C   0  0
    5.5981    2.0970   -1.2023 O   0  0
    7.6748    2.4320   -2.3904 C   0  0
    8.3972   -0.0878   -0.2520 C   0  0
    9.5432    0.7498    0.3102 C   0  0
   10.6612   -0.1194    0.5039 O   0  0
   11.8567    0.4541    0.8275 C   0  0
   12.9139   -0.4531    0.9255 C   0  0
   14.2031   -0.0104    1.2074 C   0  0
   14.4525    1.3549    1.3799 C   0  0
   13.3861    2.2606    1.3104 C   0  0
   12.0879    1.8128    1.0455 C   0  0
   15.8634    1.8449    1.5997 C   0  0
   16.5008    2.4328    0.3147 C   0  0  2  0  0  0
   16.6806    1.3526   -0.7733 C   0  0
   17.9494    0.7495   -0.4044 N   0  0
   18.7378    1.5721    0.4935 C   0  0
   17.9707    2.8960    0.5005 C   0  0  2  0  0  0
   18.2155    3.7766    1.6995 C   0  0
   19.4992    3.8681    2.0940 O   0  0
   17.3328    4.4328    2.2357 O   0  0
   18.3599   -0.4720   -0.8361 C   0  0
   17.6442   -1.1072   -1.7746 N   0  0
   18.0749   -2.3160   -2.1789 C   0  0
   19.1914   -2.9286   -1.6743 C   0  0
   19.8800   -2.2193   -0.7110 C   0  0
   19.4634   -0.9956   -0.2894 N   0  0
   21.1150   -2.8264   -0.0792 C   0  0
   21.7596   -3.7029   -0.9110 F   0  0
   22.0657   -1.9091    0.2687 F   0  0
   20.8509   -3.5377    1.0539 F   0  0
    3.3140    3.1142   -1.1500 H   0  0
    0.9368    3.3040   -0.5268 H   0  0
   -0.0598    1.7187    1.1046 H   0  0
    1.3406   -0.0626    2.1143 H   0  0
    3.7259   -0.2641    1.4986 H   0  0
    7.0404    2.7211   -3.2340 H   0  0
    8.4840    1.8052   -2.7773 H   0  0
    8.1160    3.3386   -1.9654 H   0  0
    8.1933   -0.9237    0.4293 H   0  0
    8.7117   -0.5526   -1.1949 H   0  0
    9.7962    1.5422   -0.4046 H   0  0
    9.2530    1.1989    1.2680 H   0  0
   12.7307   -1.5130    0.7680 H   0  0
   15.0167   -0.7321    1.2606 H   0  0
   13.5684    3.3226    1.4581 H   0  0
   11.2883    2.5481    1.0114 H   0  0
   15.8218    2.5938    2.3972 H   0  0
   16.4708    1.0260    2.0045 H   0  0
   15.8785    3.2541   -0.0604 H   0  0
   15.8595    0.6345   -0.8200 H   0  0
   16.7742    1.8222   -1.7602 H   0  0
   18.7981    1.1266    1.4934 H   0  0
   19.7557    1.7213    0.1150 H   0  0
   18.2600    3.4845   -0.3820 H   0  0
   20.1713    3.4142    1.5517 H   0  0
   17.4722   -2.7912   -2.9473 H   0  0
   19.5153   -3.9032   -2.0214 H   0  0
  1  2  2  0
  1 41  1  0
  2  3  1  0
  2 42  1  0
  3  4  2  0
  3 43  1  0
  4  5  1  0
  4 44  1  0
  5  6  2  0
  5 45  1  0
  6  1  1  0
  6  7  1  0
  7  8  2  0
  8  9  1  0
  9 10  2  0
  9 13  1  0
 10 11  1  0
 10 12  1  0
 11  7  1  0
 12 46  1  0
 12 47  1  0
 12 48  1  0
 13 14  1  0
 13 49  1  0
 13 50  1  0
 14 15  1  0
 14 51  1  0
 14 52  1  0
 15 16  1  0
 16 17  2  0
 17 18  1  0
 17 53  1  0
 18 19  2  0
 18 54  1  0
 19 20  1  0
 19 22  1  0
 20 21  2  0
 20 55  1  0
 21 16  1  0
 21 56  1  0
 22 57  1  0
 22 58  1  0
 23 22  1  0
 23 24  1  0
 23 59  1  0
 24 25  1  0
 24 60  1  0
 24 61  1  0
 25 26  1  0
 25 31  1  0
 26 27  1  0
 26 62  1  0
 26 63  1  0
 27 23  1  0
 27 28  1  0
 27 64  1  0
 28 29  1  0
 28 30  2  0
 29 65  1  0
 31 32  2  0
 32 33  1  0
 33 34  2  0
 33 66  1  0
 34 35  1  0
 34 67  1  0
 35 36  2  0
 35 37  1  0
 36 31  1  0
 37 38  1  0
 37 39  1  0
 37 40  1  0
M  END
> <Name>
CHEMBL255930

> <Clean Energy>
85.058899

> <chembl_id>
CHEMBL255930

> <chembl_pref_name>
None

> <efficacy>
0.96

> <Forcefield>
MMFF

> <ForcefieldBase>
MMFF

> <ForcefieldFFML>
<?xml version="1.0" encoding="UTF-8"?>
<!DOCTYPE ffml SYSTEM "Ffml.dtd">
<ffml version="1.0">
<forcefield name="MMFF" derivedFrom="MMFF" base="MMFF">
<atomTypes>
<atomType
name="C100"
element="C"
mass="12.011"
annotation=""/>
<atomType
name="N101"
element="N"
mass="14.007"
annotation=""/>
<atomType
name="O102"
element="O"
mass="16"
annotation=""/>
<atomType
name="F103"
element="F"
mass="18.998"
annotation=""/>
<atomType
name="H104"
element="H"
mass="1.008"
annotation=""/>
</atomTypes>
<parameters>
</parameters>
</forcefield>
</ffml>

> <Initial Potential Energy>
112.01576

> <Initial RMS Gradient>
30.06421

> <Minimization Criteria>
STEEPD> Minimization exiting with gradient tolerance ( 3.0000000) satisfied.

> <CHARMm Energy>
1.9197

> <Potential Energy>
1.9197

> <RMS Gradient>
0.04406

> <Bond Energy>
6.66371

> <Angle Energy>
29.20394

> <STRBend>
-1.90471

> <Dihedral Energy>
0.2542

> <OOPLane>
0.15589

> <Van der Waals Energy>
64.41661

> <Electrostatic Energy>
-96.86995

> <Hydrogen Bond Energy>
0

> <Solvation Free Energy>
0

> <HasGasteigerCharges>
true

> <REMARK99>
REMARK  99  MacroMolecule created from Mol2 file
REMARK  99  CHEMBL255930
REMARK  99  PROTEIN
REMARK  99  GASTEIGER
REMARK  99
REMARK  99

$$$$
CHEMBL253952
  SciTegic05292516403D

 67 70  0  0  0  0            999 V2000
    5.2058  -27.8222   -0.1224 C   0  0
    5.7386  -29.0035    0.3919 C   0  0
    6.9905  -29.4611   -0.0465 C   0  0
    7.7203  -28.7393   -1.0024 C   0  0
    7.1731  -27.5483   -1.5044 C   0  0
    5.9369  -27.0855   -1.0517 C   0  0
    4.0259  -27.2694    0.2950 O   0  0
    9.0600  -29.2267   -1.5063 C   0  0
   10.2231  -28.8759   -0.6832 N   0  0
   11.3295  -29.7241   -0.7459 C   0  0
   10.3514  -27.5102   -0.1395 C   0  0
   10.3557  -27.4688    1.3873 C   0  0
   10.6180  -26.4643    2.0339 O   0  0
   10.0743  -28.6542    1.9761 O   0  0
   11.2924  -30.8105   -1.3089 O   0  0
   12.4309  -29.1917   -0.0847 O   0  0
   13.6844  -29.8333   -0.0264 C   0  0
   13.8438  -31.2115    0.0733 C   0  0
   15.1313  -31.7502    0.1702 C   0  0
   16.2494  -30.9118    0.1840 C   0  0
   16.0688  -29.5281    0.1013 C   0  0
   14.7894  -28.9848    0.0011 C   0  0
   17.5542  -31.3135    0.2790 O   0  0
    2.8928  -28.1540    0.2557 C   0  0
    1.6395  -27.3068    0.4865 C   0  0
    0.3147  -27.9940    0.3829 C   0  0
   -0.8403  -27.2268    0.2964 N   0  0
   -1.8331  -28.0982    0.2476 C   0  0
   -1.4052  -29.4015    0.2857 O   0  0
   -0.0421  -29.3279    0.3820 C   0  0
    0.6744  -30.6135    0.4626 C   0  0
   -3.2758  -27.8753    0.1723 C   0  0
   -3.7880  -26.5674    0.2193 C   0  0
   -5.1669  -26.3288    0.1613 C   0  0
   -6.0423  -27.4039    0.0536 C   0  0
   -5.5598  -28.7057   -0.0005 C   0  0
   -4.1827  -28.9408    0.0587 C   0  0
   17.7841  -32.7119    0.3920 C   0  0
   -7.3934  -27.2224   -0.0016 O   0  0
    5.2046  -29.5648    1.1527 H   0  0
    7.3836  -30.3914    0.3590 H   0  0
    7.7175  -26.9651   -2.2457 H   0  0
    5.5375  -26.1488   -1.4313 H   0  0
    9.0051  -30.3142   -1.6388 H   0  0
    9.2507  -28.8185   -2.5074 H   0  0
   11.3043  -27.0925   -0.4842 H   0  0
    9.5489  -26.8675   -0.5021 H   0  0
    9.6894  -29.2678    1.3156 H   0  0
   12.9910  -31.8824    0.0851 H   0  0
   15.2256  -32.8288    0.2386 H   0  0
   16.9321  -28.8683    0.1218 H   0  0
   14.6559  -27.9080   -0.0486 H   0  0
    2.8415  -28.6520   -0.7203 H   0  0
    2.9861  -28.9048    1.0473 H   0  0
    1.7098  -26.8401    1.4779 H   0  0
    1.6494  -26.4711   -0.2262 H   0  0
    1.2906  -30.7648   -0.4288 H   0  0
   -0.0237  -31.4537    0.5354 H   0  0
    1.3218  -30.6424    1.3438 H   0  0
   -3.1025  -25.7249    0.3051 H   0  0
   -5.5335  -25.3076    0.2029 H   0  0
   -6.2516  -29.5384   -0.0872 H   0  0
   -3.8213  -29.9661    0.0144 H   0  0
   18.8640  -32.8663    0.4764 H   0  0
   17.4416  -33.2421   -0.5027 H   0  0
   17.3191  -33.1186    1.2963 H   0  0
   -7.5812  -26.2706    0.0498 H   0  0
  1  2  2  0
  1  7  1  0
  2  3  1  0
  2 40  1  0
  3  4  2  0
  3 41  1  0
  4  5  1  0
  4  8  1  0
  5  6  2  0
  5 42  1  0
  6  1  1  0
  6 43  1  0
  7 24  1  0
  8  9  1  0
  8 44  1  0
  8 45  1  0
  9 10  1  0
  9 11  1  0
 10 15  2  0
 10 16  1  0
 11 12  1  0
 11 46  1  0
 11 47  1  0
 12 13  2  0
 12 14  1  0
 14 48  1  0
 16 17  1  0
 17 18  2  0
 18 19  1  0
 18 49  1  0
 19 20  2  0
 19 50  1  0
 20 21  1  0
 20 23  1  0
 21 22  2  0
 21 51  1  0
 22 17  1  0
 22 52  1  0
 23 38  1  0
 24 25  1  0
 24 53  1  0
 24 54  1  0
 25 26  1  0
 25 55  1  0
 25 56  1  0
 26 27  1  0
 27 28  2  0
 28 29  1  0
 28 32  1  0
 29 30  1  0
 30 26  2  0
 30 31  1  0
 31 57  1  0
 31 58  1  0
 31 59  1  0
 32 33  2  0
 33 34  1  0
 33 60  1  0
 34 35  2  0
 34 61  1  0
 35 36  1  0
 35 39  1  0
 36 37  2  0
 36 62  1  0
 37 32  1  0
 37 63  1  0
 38 64  1  0
 38 65  1  0
 38 66  1  0
 39 67  1  0
M  END
> <Name>
CHEMBL253952

> <Clean Energy>
51.965302

> <chembl_id>
CHEMBL253952

> <chembl_pref_name>
None

> <efficacy>
1.33

> <Forcefield>
MMFF

> <ForcefieldBase>
MMFF

> <ForcefieldFFML>
<?xml version="1.0" encoding="UTF-8"?>
<!DOCTYPE ffml SYSTEM "Ffml.dtd">
<ffml version="1.0">
<forcefield name="MMFF" derivedFrom="MMFF" base="MMFF">
<atomTypes>
<atomType
name="C100"
element="C"
mass="12.011"
annotation=""/>
<atomType
name="O101"
element="O"
mass="16"
annotation=""/>
<atomType
name="N102"
element="N"
mass="14.007"
annotation=""/>
<atomType
name="H103"
element="H"
mass="1.008"
annotation=""/>
</atomTypes>
<parameters>
</parameters>
</forcefield>
</ffml>

> <Initial Potential Energy>
173.83099

> <Initial RMS Gradient>
29.2914

> <Minimization Criteria>
STEEPD> Minimization exiting with gradient tolerance ( 3.0000000) satisfied.

> <CHARMm Energy>
41.9668

> <Potential Energy>
41.9668

> <RMS Gradient>
0.08301

> <Bond Energy>
7.71657

> <Angle Energy>
28.35965

> <STRBend>
-0.38881

> <Dihedral Energy>
4.27064

> <OOPLane>
0.33426

> <Van der Waals Energy>
70.63292

> <Electrostatic Energy>
-68.95843

> <Hydrogen Bond Energy>
0

> <Solvation Free Energy>
0

> <HasGasteigerCharges>
true

> <REMARK99>
REMARK  99  MacroMolecule created from Mol2 file
REMARK  99  CHEMBL253952
REMARK  99  PROTEIN
REMARK  99  GASTEIGER
REMARK  99
REMARK  99

$$$$
CHEMBL3335666
  SciTegic05292516403D

 55 57  0  0  0  0            999 V2000
   16.3316   -7.4007   -0.7664 C   0  0
   13.8097   -7.4812   -0.2032 C   0  0
   11.3844   -6.0551    0.2550 C   0  0
   15.3190   -1.0073    3.0742 O   0  0
    9.9543   -4.0783    0.0203 N   0  0
    6.4857   -2.7874    0.6828 C   0  0
    8.9077   -1.8905   -0.3472 C   0  0
    9.2368   -5.9675    1.1742 O   0  0
    7.7904   -1.0393   -0.3367 C   0  0
   11.4058   -7.4536    0.2730 C   0  0
   12.5982   -8.1534    0.0464 C   0  0
   13.7729   -6.0763   -0.2022 C   0  0
   12.8740    0.0223   -1.1798 C   0  0
   15.0638    0.3833   -0.2108 C   0  0
    8.8253   -3.2178    0.1277 C   0  0
   12.5813   -5.3705    0.0284 C   0  0
   14.7288   -0.4827    0.8344 C   0  0
   10.0852   -5.3629    0.5282 C   0  0
    6.5847   -1.4944    0.1799 C   0  0
   15.6777   -0.7927    1.9295 C   0  0
   14.9114   -9.2470   -1.6329 C   0  0
   15.1043   -8.2821   -0.4429 C   0  0
   11.2329   -1.3889    0.0313 N   0  0
   14.1371    0.6245   -1.2225 C   0  0
    7.5982   -3.6417    0.6557 C   0  0
   15.4445   -9.0957    0.8231 C   0  0
   13.4494   -1.0562    0.8930 C   0  0
   12.5115   -0.8073   -0.1149 C   0  0
   16.9627   -0.8791    1.5302 O   0  0
   10.1680   -1.2895   -0.8466 C   0  0
   10.1555   -0.7500   -1.9441 O   0  0
    5.2184   -0.4522    0.2072 Cl  0  0
   17.2228   -8.0145   -0.9453 H   0  0
   16.5717   -6.7223    0.0607 H   0  0
   16.1683   -6.7978   -1.6674 H   0  0
   10.7222   -3.7258   -0.5391 H   0  0
    5.5433   -3.1495    1.0908 H   0  0
    7.8707   -0.0239   -0.7218 H   0  0
   10.4927   -8.0147    0.4695 H   0  0
   12.5616   -9.2418    0.0764 H   0  0
   14.6721   -5.4888   -0.3693 H   0  0
   12.1807    0.2562   -1.9829 H   0  0
   16.0176    0.9049   -0.2365 H   0  0
   12.6348   -4.2875    0.0543 H   0  0
   15.8347   -9.7957   -1.8522 H   0  0
   14.6240   -8.7023   -2.5399 H   0  0
   14.1364   -9.9962   -1.4388 H   0  0
   11.0586   -1.8707    0.9087 H   0  0
   14.3824    1.3036   -2.0383 H   0  0
    7.4536   -4.6487    1.0378 H   0  0
   16.3788   -9.6548    0.6955 H   0  0
   14.6644   -9.8247    1.0679 H   0  0
   15.5649   -8.4386    1.6927 H   0  0
   13.1979   -1.6901    1.7417 H   0  0
   17.1199   -0.8369    0.5691 H   0  0
  1 33  1  0
  1 34  1  0
  1 35  1  0
  2 12  1  0
  2 22  1  0
  3 10  2  0
  5 18  1  0
  5 36  1  0
  6 25  1  0
  6 37  1  0
  7  9  2  0
  7 30  1  0
  9 19  1  0
  9 38  1  0
 10 11  1  0
 10 39  1  0
 11  2  2  0
 11 40  1  0
 12 16  2  0
 12 41  1  0
 13 28  1  0
 13 42  1  0
 14 24  1  0
 14 43  1  0
 15  5  1  0
 15  7  1  0
 16  3  1  0
 16 44  1  0
 17 14  2  0
 17 20  1  0
 18  3  1  0
 18  8  2  0
 19  6  2  0
 19 32  1  0
 20  4  2  0
 20 29  1  0
 21 45  1  0
 21 46  1  0
 21 47  1  0
 22  1  1  0
 22 21  1  0
 22 26  1  0
 23 28  1  0
 23 48  1  0
 24 13  2  0
 24 49  1  0
 25 15  2  0
 25 50  1  0
 26 51  1  0
 26 52  1  0
 26 53  1  0
 27 17  1  0
 27 54  1  0
 28 27  2  0
 29 55  1  0
 30 23  1  0
 30 31  2  0
M  END
> <Name>
CHEMBL3335666

> <Clean Energy>
11.695

> <chembl_id>
CHEMBL3335666

> <chembl_pref_name>
None

> <efficacy>
1.253561254

> <Forcefield>
MMFF

> <ForcefieldBase>
MMFF

> <ForcefieldFFML>
<?xml version="1.0" encoding="UTF-8"?>
<!DOCTYPE ffml SYSTEM "Ffml.dtd">
<ffml version="1.0">
<forcefield name="MMFF" derivedFrom="MMFF" base="MMFF">
<atomTypes>
<atomType
name="C100"
element="C"
mass="12.011"
annotation=""/>
<atomType
name="O101"
element="O"
mass="16"
annotation=""/>
<atomType
name="N102"
element="N"
mass="14.007"
annotation=""/>
<atomType
name="Cl103"
element="Cl"
mass="35.453"
annotation=""/>
<atomType
name="H104"
element="H"
mass="1.008"
annotation=""/>
</atomTypes>
<parameters>
</parameters>
</forcefield>
</ffml>

> <Initial Potential Energy>
249.23866

> <Initial RMS Gradient>
83.26934

> <Minimization Criteria>
STEEPD> Minimization exiting with gradient tolerance ( 3.0000000) satisfied.

> <CHARMm Energy>
66.85402

> <Potential Energy>
66.85402

> <RMS Gradient>
0.09769

> <Bond Energy>
8.7327

> <Angle Energy>
14.20873

> <STRBend>
2.17198

> <Dihedral Energy>
13.4451

> <OOPLane>
0.14959

> <Van der Waals Energy>
74.00084

> <Electrostatic Energy>
-45.85493

> <Hydrogen Bond Energy>
0

> <Solvation Free Energy>
0

> <HasGasteigerCharges>
true

> <REMARK99>
REMARK  99  MacroMolecule created from Mol2 file
REMARK  99  CHEMBL3335666
REMARK  99  PROTEIN
REMARK  99  GASTEIGER
REMARK  99
REMARK  99

$$$$
CHEMBL2377521
  SciTegic05292516403D

 71 74  0  0  0  0            999 V2000
    0.2203   -7.8946    0.0490 C   0  0
   -0.0012   -9.2784   -0.0583 C   0  0
    1.0495  -10.0850   -0.5286 C   0  0
    2.2792   -9.5268   -0.8911 C   0  0
    2.4775   -8.1477   -0.7771 C   0  0
    1.4451   -7.3303   -0.3138 C   0  0
    3.7475   -7.5126   -1.2019 C   0  0
    4.8877   -8.2069   -0.8930 N   0  0
    3.7069   -6.4362   -1.7855 O   0  0
    6.1983   -7.8017   -1.3456 C   0  0
    7.3530   -8.4089   -0.5639 C   0  0
    7.3385   -9.7034   -0.0078 C   0  0
    8.4692  -10.1691    0.6753 C   0  0
    9.6176   -9.3800    0.7994 C   0  0
    9.6776   -8.1157    0.2155 C   0  0
    8.5344   -7.6411   -0.4506 C   0  0
   10.8868   -7.2097    0.3397 C   0  0
   12.2817   -7.8795    0.4017 C   0  0  2  0  0  0
   13.3032   -6.7986    0.7208 C   0  0
   12.6518   -8.5601   -0.9271 C   0  0
   14.4178   -7.2560    1.3340 O   0  0
   13.1495   -5.6146    0.4586 O   0  0
   13.7553   -9.5830   -0.7555 C   0  0
   15.0819   -9.2707   -1.0841 C   0  0
   16.1013  -10.2027   -0.8755 C   0  0
   15.8027  -11.4567   -0.3452 C   0  0
   14.4842  -11.7810   -0.0277 C   0  0
   13.4654  -10.8499   -0.2308 C   0  0
    6.1883  -10.4378   -0.1652 O   0  0
    6.1464  -11.7386    0.4284 C   0  0
    4.7610  -12.3260    0.1769 C   0  0
    4.6242  -13.7225    0.7562 C   0  0
   -1.3112   -9.8590    0.2754 C   0  0
   -2.4844   -9.3682   -0.3240 C   0  0
   -3.7315   -9.9132   -0.0164 C   0  0
   -3.8225  -10.9595    0.8964 C   0  0
   -2.6759  -11.4640    1.5024 C   0  0
   -1.4288  -10.9173    1.1924 C   0  0
   -0.5721   -7.2406    0.4098 H   0  0
    0.8950  -11.1557   -0.6527 H   0  0
    3.0530  -10.1678   -1.3035 H   0  0
    1.5859   -6.2535   -0.2448 H   0  0
    4.8470   -9.0827   -0.3859 H   0  0
    6.2886   -8.0983   -2.3967 H   0  0
    6.2444   -6.7073   -1.3010 H   0  0
    8.4933  -11.1512    1.1359 H   0  0
   10.4543   -9.7808    1.3646 H   0  0
    8.5562   -6.6425   -0.8893 H   0  0
   10.8806   -6.5045   -0.5030 H   0  0
   10.7365   -6.6064    1.2458 H   0  0
   12.2903   -8.5881    1.2385 H   0  0
   11.7868   -9.0779   -1.3597 H   0  0
   12.9551   -7.8136   -1.6730 H   0  0
   14.4679   -8.2288    1.4206 H   0  0
   15.3327   -8.2948   -1.4981 H   0  0
   17.1304   -9.9533   -1.1293 H   0  0
   16.5981  -12.1830   -0.1884 H   0  0
   14.2473  -12.7631    0.3736 H   0  0
   12.4402  -11.1222    0.0141 H   0  0
    6.9057  -12.3826   -0.0305 H   0  0
    6.3120  -11.6657    1.5101 H   0  0
    4.0015  -11.6692    0.6164 H   0  0
    4.5591  -12.3470   -0.9004 H   0  0
    3.6224  -14.1177    0.5602 H   0  0
    4.7800  -13.7149    1.8396 H   0  0
    5.3528  -14.4059    0.3089 H   0  0
   -2.4292   -8.5589   -1.0498 H   0  0
   -4.6316   -9.5245   -0.4880 H   0  0
   -4.7917  -11.3827    1.1365 H   0  0
   -2.7562  -12.2791    2.2175 H   0  0
   -0.5433  -11.3164    1.6824 H   0  0
  1  2  2  0
  1 39  1  0
  2  3  1  0
  2 33  1  0
  3  4  2  0
  3 40  1  0
  4  5  1  0
  4 41  1  0
  5  6  2  0
  5  7  1  0
  6  1  1  0
  6 42  1  0
  7  8  1  0
  7  9  2  0
  8 10  1  0
  8 43  1  0
 10 11  1  0
 10 44  1  0
 10 45  1  0
 11 12  2  0
 12 13  1  0
 12 29  1  0
 13 14  2  0
 13 46  1  0
 14 15  1  0
 14 47  1  0
 15 16  2  0
 15 17  1  0
 16 11  1  0
 16 48  1  0
 17 18  1  0
 17 49  1  0
 17 50  1  0
 18 19  1  0
 18 20  1  0
 18 51  1  0
 19 21  1  0
 19 22  2  0
 20 23  1  0
 20 52  1  0
 20 53  1  0
 21 54  1  0
 23 24  2  0
 24 25  1  0
 24 55  1  0
 25 26  2  0
 25 56  1  0
 26 27  1  0
 26 57  1  0
 27 28  2  0
 27 58  1  0
 28 23  1  0
 28 59  1  0
 29 30  1  0
 30 31  1  0
 30 60  1  0
 30 61  1  0
 31 32  1  0
 31 62  1  0
 31 63  1  0
 32 64  1  0
 32 65  1  0
 32 66  1  0
 33 34  2  0
 34 35  1  0
 34 67  1  0
 35 36  2  0
 35 68  1  0
 36 37  1  0
 36 69  1  0
 37 38  2  0
 37 70  1  0
 38 33  1  0
 38 71  1  0
M  END
> <Name>
CHEMBL2377521

> <Clean Energy>
16.490999

> <chembl_id>
CHEMBL2377521

> <chembl_pref_name>
None

> <efficacy>
0.957

> <Forcefield>
MMFF

> <ForcefieldBase>
MMFF

> <ForcefieldFFML>
<?xml version="1.0" encoding="UTF-8"?>
<!DOCTYPE ffml SYSTEM "Ffml.dtd">
<ffml version="1.0">
<forcefield name="MMFF" derivedFrom="MMFF" base="MMFF">
<atomTypes>
<atomType
name="C100"
element="C"
mass="12.011"
annotation=""/>
<atomType
name="N101"
element="N"
mass="14.007"
annotation=""/>
<atomType
name="O102"
element="O"
mass="16"
annotation=""/>
<atomType
name="H103"
element="H"
mass="1.008"
annotation=""/>
</atomTypes>
<parameters>
</parameters>
</forcefield>
</ffml>

> <Initial Potential Energy>
152.21708

> <Initial RMS Gradient>
30.08668

> <Minimization Criteria>
STEEPD> Minimization exiting with gradient tolerance ( 3.0000000) satisfied.

> <CHARMm Energy>
40.19832

> <Potential Energy>
40.19832

> <RMS Gradient>
0.07771

> <Bond Energy>
9.2495

> <Angle Energy>
12.85421

> <STRBend>
0.30987

> <Dihedral Energy>
1.26514

> <OOPLane>
0.09837

> <Van der Waals Energy>
83.12425

> <Electrostatic Energy>
-66.70301

> <Hydrogen Bond Energy>
0

> <Solvation Free Energy>
0

> <HasGasteigerCharges>
true

> <REMARK99>
REMARK  99  MacroMolecule created from Mol2 file
REMARK  99  CHEMBL2377521
REMARK  99  PROTEIN
REMARK  99  GASTEIGER
REMARK  99
REMARK  99

$$$$
CHEMBL488991
  SciTegic05292516403D

 49 50  0  0  0  0            999 V2000
    8.5073   -9.1969    0.6332 C   0  0
    8.7726  -10.3764   -0.0629 C   0  0
   10.0731  -10.6745   -0.4869 C   0  0
   11.1036   -9.7653   -0.2058 C   0  0
   10.8420   -8.5823    0.5013 C   0  0
    9.5369   -8.2993    0.9146 C   0  0
   11.9635   -7.6325    0.7679 C   0  0
   11.8838   -6.7484    1.9973 C   0  0
   12.9592   -7.5955   -0.0702 N   0  0
   13.9071   -6.6298    0.3052 O   0  0
   14.9078   -6.5441   -0.7103 C   0  0
   15.9020   -5.4702   -0.3415 C   0  0
   17.2566   -5.7824   -0.1511 C   0  0
   18.1782   -4.7802    0.1676 C   0  0
   17.7431   -3.4650    0.3002 C   0  0
   16.4032   -3.1405    0.1233 C   0  0
   15.4839   -4.1387   -0.1999 C   0  0
   10.3647  -11.9587   -1.2291 C   0  0
   11.1257  -13.0020   -0.3933 C   0  0  1  0  0  0
   10.1428  -13.7339    0.5419 C   0  0
   11.7678  -13.8759   -1.3312 O   0  0
   12.7548  -14.7141   -0.7316 C   0  0
   13.3659  -15.5788   -1.8166 C   0  0
    9.7630  -13.0096    1.6240 O   0  0
    9.7370  -14.8758    0.3749 O   0  0
   18.6114   -2.4552    0.6021 O   0  0
    7.4897   -8.9711    0.9453 H   0  0
    7.9511  -11.0583   -0.2776 H   0  0
   12.1151   -9.9756   -0.5499 H   0  0
    9.2935   -7.3736    1.4289 H   0  0
   11.6152   -5.7327    1.6940 H   0  0
   12.8502   -6.7281    2.5096 H   0  0
   11.1515   -7.1165    2.7197 H   0  0
   15.4025   -7.5177   -0.8066 H   0  0
   14.4445   -6.2956   -1.6730 H   0  0
   17.5999   -6.8108   -0.2503 H   0  0
   19.2244   -5.0382    0.3018 H   0  0
   16.0777   -2.1089    0.2282 H   0  0
   14.4382   -3.8723   -0.3401 H   0  0
    9.4311  -12.3926   -1.6118 H   0  0
   10.9441  -11.7035   -2.1270 H   0  0
   11.9031  -12.5296    0.2198 H   0  0
   13.5329  -14.0951   -0.2713 H   0  0
   12.3046  -15.3509    0.0365 H   0  0
   14.1360  -16.2368   -1.4041 H   0  0
   13.8144  -14.9571   -2.5986 H   0  0
   12.5978  -16.1923   -2.2988 H   0  0
   10.1373  -12.1067    1.6623 H   0  0
   19.4997   -2.8345    0.7028 H   0  0
  1  2  2  0
  1 27  1  0
  2  3  1  0
  2 28  1  0
  3  4  2  0
  3 18  1  0
  4  5  1  0
  4 29  1  0
  5  6  2  0
  5  7  1  0
  6  1  1  0
  6 30  1  0
  7  8  1  0
  7  9  2  0
  8 31  1  0
  8 32  1  0
  8 33  1  0
  9 10  1  0
 10 11  1  0
 11 12  1  0
 11 34  1  0
 11 35  1  0
 12 13  2  0
 13 14  1  0
 13 36  1  0
 14 15  2  0
 14 37  1  0
 15 16  1  0
 15 26  1  0
 16 17  2  0
 16 38  1  0
 17 12  1  0
 17 39  1  0
 18 19  1  0
 18 40  1  0
 18 41  1  0
 19 20  1  0
 19 21  1  0
 19 42  1  0
 20 24  1  0
 20 25  2  0
 21 22  1  0
 22 23  1  0
 22 43  1  0
 22 44  1  0
 23 45  1  0
 23 46  1  0
 23 47  1  0
 24 48  1  0
 26 49  1  0
M  END
> <Name>
CHEMBL488991

> <Clean Energy>
30.3906

> <chembl_id>
CHEMBL488991

> <chembl_pref_name>
None

> <efficacy>
2.22

> <Forcefield>
MMFF

> <ForcefieldBase>
MMFF

> <ForcefieldFFML>
<?xml version="1.0" encoding="UTF-8"?>
<!DOCTYPE ffml SYSTEM "Ffml.dtd">
<ffml version="1.0">
<forcefield name="MMFF" derivedFrom="MMFF" base="MMFF">
<atomTypes>
<atomType
name="C100"
element="C"
mass="12.011"
annotation=""/>
<atomType
name="N101"
element="N"
mass="14.007"
annotation=""/>
<atomType
name="O102"
element="O"
mass="16"
annotation=""/>
<atomType
name="H103"
element="H"
mass="1.008"
annotation=""/>
</atomTypes>
<parameters>
</parameters>
</forcefield>
</ffml>

> <Initial Potential Energy>
194.51618

> <Initial RMS Gradient>
27.00468

> <Minimization Criteria>
STEEPD> Minimization exiting with gradient tolerance ( 3.0000000) satisfied.

> <CHARMm Energy>
94.13544

> <Potential Energy>
94.13544

> <RMS Gradient>
0.12229

> <Bond Energy>
5.0437

> <Angle Energy>
7.51756

> <STRBend>
1.06389

> <Dihedral Energy>
1.24083

> <OOPLane>
0.02407

> <Van der Waals Energy>
47.44855

> <Electrostatic Energy>
31.79683

> <Hydrogen Bond Energy>
0

> <Solvation Free Energy>
0

> <HasGasteigerCharges>
true

> <REMARK99>
REMARK  99  MacroMolecule created from Mol2 file
REMARK  99  CHEMBL488991
REMARK  99  PROTEIN
REMARK  99  GASTEIGER
REMARK  99
REMARK  99

$$$$
CHEMBL485291
  SciTegic05292516403D

 58 60  0  0  0  0            999 V2000
    0.2428   -4.7506    0.7503 C   0  0
    0.2241   -6.0743    0.3131 C   0  0
    1.3731   -6.6617   -0.2335 C   0  0
    2.5437   -5.8925   -0.3456 C   0  0
    2.5663   -4.5627    0.0956 C   0  0
    1.4099   -3.9972    0.6438 C   0  0
    3.7920   -3.7342    0.0194 C   0  0
    5.0842   -4.2730   -0.4852 C   0  0
    3.8421   -2.5064    0.4294 N   0  0
    5.1726   -2.0624    0.2474 O   0  0
    5.8247   -2.9618   -0.6662 C   0  0  1  0  0  0
    7.3132   -3.0672   -0.4080 C   0  0
    8.0692   -4.0717   -1.0255 C   0  0
    9.4431   -4.1861   -0.7873 C   0  0
   10.1172   -3.2943    0.0640 C   0  0
    9.3562   -2.2749    0.6559 C   0  0
    7.9822   -2.1575    0.4195 C   0  0
    1.3335   -8.0995   -0.7150 C   0  0
    2.3640   -8.9952    0.0022 C   0  0  1  0  0  0
    1.6756  -10.3323    0.3247 C   0  0
    3.5235   -9.0611   -0.8285 O   0  0
    4.6139   -9.7515   -0.2208 C   0  0
    5.8075   -9.6606   -1.1514 C   0  0
    0.8755  -10.2599    1.4227 O   0  0
    1.7973  -11.3703   -0.3087 O   0  0
   11.6300   -3.4466    0.3038 C   0  0
   12.3831   -3.3185   -1.0379 C   0  0
   11.9201   -4.8332    0.9185 C   0  0
   12.2227   -2.3897    1.2631 C   0  0
   -0.6543   -4.3010    1.1696 H   0  0
   -0.7032   -6.6372    0.3944 H   0  0
    3.4285   -6.3487   -0.7829 H   0  0
    1.4087   -2.9653    0.9909 H   0  0
    5.5217   -4.9141    0.2878 H   0  0
    4.9918   -4.8217   -1.4251 H   0  0
    5.6712   -2.5609   -1.6764 H   0  0
    7.5991   -4.7851   -1.6990 H   0  0
    9.9767   -4.9981   -1.2784 H   0  0
    9.8146   -1.5350    1.3094 H   0  0
    7.4374   -1.3489    0.9039 H   0  0
    0.3161   -8.4853   -0.5719 H   0  0
    1.5087   -8.0950   -1.7989 H   0  0
    2.6689   -8.5536    0.9606 H   0  0
    4.8597   -9.2860    0.7400 H   0  0
    4.3559  -10.8019   -0.0559 H   0  0
    6.6743  -10.1739   -0.7258 H   0  0
    6.0722   -8.6143   -1.3372 H   0  0
    5.5737  -10.1076   -2.1234 H   0  0
    0.8886   -9.3897    1.8687 H   0  0
   13.4672   -3.3896   -0.8912 H   0  0
   12.1738   -2.3548   -1.5172 H   0  0
   12.1038   -4.1057   -1.7468 H   0  0
   12.9886   -4.9555    1.1315 H   0  0
   11.6316   -5.6518    0.2501 H   0  0
   11.3746   -4.9692    1.8599 H   0  0
   13.2991   -2.5443    1.4046 H   0  0
   11.7574   -2.4383    2.2544 H   0  0
   12.0928   -1.3732    0.8736 H   0  0
  1  2  2  0
  1 30  1  0
  2  3  1  0
  2 31  1  0
  3  4  2  0
  3 18  1  0
  4  5  1  0
  4 32  1  0
  5  6  2  0
  5  7  1  0
  6  1  1  0
  6 33  1  0
  7  8  1  0
  7  9  2  0
  8 11  1  0
  8 34  1  0
  8 35  1  0
  9 10  1  0
 10 11  1  0
 11 12  1  0
 11 36  1  0
 12 13  2  0
 13 14  1  0
 13 37  1  0
 14 15  2  0
 14 38  1  0
 15 16  1  0
 15 26  1  0
 16 17  2  0
 16 39  1  0
 17 12  1  0
 17 40  1  0
 18 19  1  0
 18 41  1  0
 18 42  1  0
 19 20  1  0
 19 21  1  0
 19 43  1  0
 20 24  1  0
 20 25  2  0
 21 22  1  0
 22 23  1  0
 22 44  1  0
 22 45  1  0
 23 46  1  0
 23 47  1  0
 23 48  1  0
 24 49  1  0
 26 27  1  0
 26 28  1  0
 26 29  1  0
 27 50  1  0
 27 51  1  0
 27 52  1  0
 28 53  1  0
 28 54  1  0
 28 55  1  0
 29 56  1  0
 29 57  1  0
 29 58  1  0
M  END
> <Name>
CHEMBL485291

> <Clean Energy>
58.207199

> <chembl_id>
CHEMBL485291

> <chembl_pref_name>
None

> <efficacy>
1.58

> <Forcefield>
MMFF

> <ForcefieldBase>
MMFF

> <ForcefieldFFML>
<?xml version="1.0" encoding="UTF-8"?>
<!DOCTYPE ffml SYSTEM "Ffml.dtd">
<ffml version="1.0">
<forcefield name="MMFF" derivedFrom="MMFF" base="MMFF">
<atomTypes>
<atomType
name="C100"
element="C"
mass="12.011"
annotation=""/>
<atomType
name="N101"
element="N"
mass="14.007"
annotation=""/>
<atomType
name="O102"
element="O"
mass="16"
annotation=""/>
<atomType
name="H103"
element="H"
mass="1.008"
annotation=""/>
</atomTypes>
<parameters>
</parameters>
</forcefield>
</ffml>

> <Initial Potential Energy>
262.73618

> <Initial RMS Gradient>
41.49037

> <Minimization Criteria>
CONJUG> Minimization exiting with gradient tolerance ( 0.0100000) satisfied.

> <CHARMm Energy>
115.95862

> <Potential Energy>
115.95862

> <RMS Gradient>
0.00981

> <Bond Energy>
7.45278

> <Angle Energy>
12.06533

> <STRBend>
1.22839

> <Dihedral Energy>
4.11839

> <OOPLane>
0.05245

> <Van der Waals Energy>
57.14277

> <Electrostatic Energy>
33.89851

> <Hydrogen Bond Energy>
0

> <Solvation Free Energy>
0

> <HasGasteigerCharges>
true

> <REMARK99>
REMARK  99  MacroMolecule created from Mol2 file
REMARK  99  CHEMBL485291
REMARK  99  PROTEIN
REMARK  99  GASTEIGER
REMARK  99
REMARK  99

$$$$
CHEMBL557580
  SciTegic05292516403D

 66 69  0  0  0  0            999 V2000
    1.2949   -0.4028   -0.7072 C   0  0
    0.0919   -0.6936   -0.0680 C   0  0
   -0.9928    0.1915   -0.1677 C   0  0
   -0.8901    1.3754   -0.9136 C   0  0
    0.3284    1.6675   -1.5408 C   0  0
    1.4104    0.7908   -1.4256 C   0  0
    2.4257   -1.1702   -0.6792 O   0  0
   -2.0623    2.3217   -1.0447 C   0  0
   -2.2437    3.2857    0.0441 N   0  0
   -3.4853    3.9125    0.1036 C   0  0
   -1.0709    3.8012    0.7618 C   0  0
   -0.2671    4.7843   -0.0853 C   0  0
   -0.6219    5.2221   -1.1718 O   0  0
    0.8853    5.1912    0.4983 O   0  0
   -4.4426    3.5268   -0.5608 O   0  0
   -3.5072    4.9875    0.9853 O   0  0
   -4.7073    5.7070    0.9908 C   0  0
   -5.5144    5.6397    2.1213 C   0  0
   -6.6959    6.3814    2.1552 C   0  0
   -7.0656    7.1912    1.0742 C   0  0
   -6.2285    7.2681   -0.0425 C   0  0
   -5.0409    6.5317   -0.0828 C   0  0
   -8.2502    7.8582    1.2381 O   0  0
   -8.7490    8.5670    0.1097 C   0  0
    2.2844   -2.5726   -0.4153 C   0  0
    3.6024   -3.2274   -0.8246 C   0  0
    3.6412   -4.7079   -0.6828 C   0  0
    4.4829   -5.3130    0.2312 N   0  0
    4.3307   -6.6103    0.0209 C   0  0
    3.4139   -6.9000   -0.9582 O   0  0
    2.9928   -5.6824   -1.4132 C   0  0
    2.0266   -5.6911   -2.5258 C   0  0
    4.9914   -7.7394    0.6677 C   0  0
    5.9676   -7.5044    1.6486 C   0  0
    6.6240   -8.5659    2.2759 C   0  0
    6.3098   -9.8776    1.9295 C   0  0
    5.3425  -10.1298    0.9589 C   0  0
    4.6869   -9.0671    0.3321 C   0  0
   -0.0281   -1.5960    0.5227 H   0  0
   -1.9250   -0.0580    0.3363 H   0  0
    0.4400    2.5786   -2.1295 H   0  0
    2.3502    1.0315   -1.9172 H   0  0
   -1.9697    2.8979   -1.9747 H   0  0
   -2.9777    1.7273   -1.1620 H   0  0
   -1.3894    4.3287    1.6661 H   0  0
   -0.4351    2.9676    1.0704 H   0  0
    1.1457    4.6903    1.2982 H   0  0
   -5.2373    5.0145    2.9635 H   0  0
   -7.3398    6.3275    3.0293 H   0  0
   -6.4691    7.8944   -0.8949 H   0  0
   -4.3904    6.5962   -0.9509 H   0  0
   -9.7279    8.9762    0.3778 H   0  0
   -8.8895    7.9004   -0.7478 H   0  0
   -8.0952    9.4074   -0.1452 H   0  0
    2.0944   -2.7312    0.6525 H   0  0
    1.4561   -2.9904   -1.0005 H   0  0
    3.8276   -2.9642   -1.8667 H   0  0
    4.4171   -2.7828   -0.2381 H   0  0
    2.2581   -6.4900   -3.2371 H   0  0
    2.0441   -4.7413   -3.0687 H   0  0
    1.0128   -5.8504   -2.1463 H   0  0
    6.2214   -6.4819    1.9255 H   0  0
    7.3787   -8.3668    3.0322 H   0  0
    6.8204  -10.7033    2.4164 H   0  0
    5.0972  -11.1528    0.6868 H   0  0
    3.9349   -9.2836   -0.4237 H   0  0
  1  2  2  0
  1  6  1  0
  1  7  1  0
  2  3  1  0
  2 39  1  0
  3  4  2  0
  3 40  1  0
  4  5  1  0
  4  8  1  0
  5  6  2  0
  5 41  1  0
  6 42  1  0
  7 25  1  0
  8  9  1  0
  8 43  1  0
  8 44  1  0
  9 10  1  0
  9 11  1  0
 10 15  2  0
 10 16  1  0
 11 12  1  0
 11 45  1  0
 11 46  1  0
 12 13  2  0
 12 14  1  0
 14 47  1  0
 16 17  1  0
 17 18  2  0
 17 22  1  0
 18 19  1  0
 18 48  1  0
 19 20  2  0
 19 49  1  0
 20 21  1  0
 20 23  1  0
 21 22  2  0
 21 50  1  0
 22 51  1  0
 23 24  1  0
 24 52  1  0
 24 53  1  0
 24 54  1  0
 25 26  1  0
 25 55  1  0
 25 56  1  0
 26 27  1  0
 26 57  1  0
 26 58  1  0
 27 28  1  0
 27 31  2  0
 28 29  2  0
 29 30  1  0
 29 33  1  0
 30 31  1  0
 31 32  1  0
 32 59  1  0
 32 60  1  0
 32 61  1  0
 33 34  2  0
 33 38  1  0
 34 35  1  0
 34 62  1  0
 35 36  2  0
 35 63  1  0
 36 37  1  0
 36 64  1  0
 37 38  2  0
 37 65  1  0
 38 66  1  0
M  END
> <Name>
CHEMBL557580

> <Clean Energy>
49.644798

> <chembl_id>
CHEMBL557580

> <chembl_pref_name>
MURAGLITAZAR CHLORIDE

> <efficacy>
1.07

> <Forcefield>
MMFF

> <ForcefieldBase>
MMFF

> <ForcefieldFFML>
<?xml version="1.0" encoding="UTF-8"?>
<!DOCTYPE ffml SYSTEM "Ffml.dtd">
<ffml version="1.0">
<forcefield name="MMFF" derivedFrom="MMFF" base="MMFF">
<atomTypes>
<atomType
name="C100"
element="C"
mass="12.011"
annotation=""/>
<atomType
name="O101"
element="O"
mass="16"
annotation=""/>
<atomType
name="N102"
element="N"
mass="14.007"
annotation=""/>
<atomType
name="H103"
element="H"
mass="1.008"
annotation=""/>
</atomTypes>
<parameters>
</parameters>
</forcefield>
</ffml>

> <Initial Potential Energy>
180.89243

> <Initial RMS Gradient>
28.3976

> <Minimization Criteria>
STEEPD> Minimization exiting with gradient tolerance ( 3.0000000) satisfied.

> <CHARMm Energy>
52.53966

> <Potential Energy>
52.53966

> <RMS Gradient>
0.0225

> <Bond Energy>
6.96495

> <Angle Energy>
24.26194

> <STRBend>
-0.07456

> <Dihedral Energy>
3.69773

> <OOPLane>
0.33294

> <Van der Waals Energy>
68.65654

> <Electrostatic Energy>
-51.29989

> <Hydrogen Bond Energy>
0

> <Solvation Free Energy>
0

> <HasGasteigerCharges>
true

> <REMARK99>
REMARK  99  MacroMolecule created from Mol2 file
REMARK  99  CHEMBL557580
REMARK  99  PROTEIN
REMARK  99  GASTEIGER
REMARK  99
REMARK  99

$$$$
CHEMBL3765690
  SciTegic05292516403D

 48 49  0  0  0  0            999 V2000
    2.8327    0.3670    0.4420 C   0  0
    2.1116   -0.7655    0.9167 O   0  0
    0.0815   -1.8479    1.2308 C   0  0
    0.7852   -0.8293    0.5928 C   0  0
    0.1112    0.0111   -0.2937 C   0  0
   -1.2528   -0.1779   -0.5565 C   0  0
   -1.9539   -1.2284    0.0499 C   0  0
   -1.2758   -2.0406    0.9725 C   0  0
   -3.4125   -1.4779   -0.2616 C   0  0
   -3.6654   -2.8837   -0.4732 N   0  0
   -4.4725   -3.6119    0.3700 C   0  0
   -4.3579   -5.0814    0.2200 C   0  0
   -5.1613   -3.1322    1.2605 O   0  0
   -4.2633   -5.8485    1.3846 C   0  0
   -3.9784   -7.2090    1.2960 C   0  0
   -3.7919   -7.8095    0.0434 C   0  0
   -3.9796   -7.0519   -1.1220 C   0  0
   -4.2537   -5.6869   -1.0361 C   0  0
   -3.3478   -9.2459   -0.0434 C   0  0
   -1.9157   -9.4238   -0.5867 C   0  0  2  0  0  0
   -1.6688  -10.9167   -0.6533 C   0  0
   -0.8019   -8.7138    0.2136 C   0  0
   -0.4245   -7.3451   -0.3390 C   0  0
   -1.3609  -11.4953    0.5313 O   0  0
   -1.8135  -11.5795   -1.6712 O   0  0
    3.8473    0.3109    0.8479 H   0  0
    2.3826    1.3008    0.7951 H   0  0
    2.9091    0.3523   -0.6501 H   0  0
    0.5931   -2.4999    1.9344 H   0  0
    0.6173    0.8290   -0.7983 H   0  0
   -1.7529    0.5078   -1.2414 H   0  0
   -1.8003   -2.8394    1.4930 H   0  0
   -4.0303   -1.0771    0.5486 H   0  0
   -3.6926   -0.9717   -1.1917 H   0  0
   -3.0784   -3.3565   -1.1460 H   0  0
   -4.3690   -5.3773    2.3598 H   0  0
   -3.8779   -7.7889    2.2115 H   0  0
   -3.8826   -7.5174   -2.1017 H   0  0
   -4.3719   -5.1064   -1.9467 H   0  0
   -3.4331   -9.7189    0.9442 H   0  0
   -4.0594   -9.7874   -0.6819 H   0  0
   -1.8701   -9.0685   -1.6251 H   0  0
   -1.0878   -8.6115    1.2672 H   0  0
    0.1120   -9.3218    0.1980 H   0  0
    0.4316   -6.9440    0.2136 H   0  0
   -1.2387   -6.6248   -0.2441 H   0  0
   -0.1403   -7.4113   -1.3940 H   0  0
   -1.2597  -10.8534    1.2617 H   0  0
  1 26  1  0
  1 27  1  0
  1 28  1  0
  2  1  1  0
  3  4  2  0
  3 29  1  0
  4  2  1  0
  4  5  1  0
  5  6  2  0
  5 30  1  0
  6  7  1  0
  6 31  1  0
  7  8  2  0
  7  9  1  0
  8  3  1  0
  8 32  1  0
  9 10  1  0
  9 33  1  0
  9 34  1  0
 10 11  1  0
 10 35  1  0
 11 12  1  0
 11 13  2  0
 12 14  2  0
 14 15  1  0
 14 36  1  0
 15 16  2  0
 15 37  1  0
 16 17  1  0
 16 19  1  0
 17 18  2  0
 17 38  1  0
 18 12  1  0
 18 39  1  0
 19 20  1  0
 19 40  1  0
 19 41  1  0
 20 21  1  0
 20 22  1  0
 20 42  1  0
 21 24  1  0
 21 25  2  0
 22 23  1  0
 22 43  1  0
 22 44  1  0
 23 45  1  0
 23 46  1  0
 23 47  1  0
 24 48  1  0
M  END
> <Name>
CHEMBL3765690

> <Clean Energy>
12.2318

> <chembl_id>
CHEMBL3765690

> <chembl_pref_name>
None

> <efficacy>
1.044634378

> <Forcefield>
MMFF

> <ForcefieldBase>
MMFF

> <ForcefieldFFML>
<?xml version="1.0" encoding="UTF-8"?>
<!DOCTYPE ffml SYSTEM "Ffml.dtd">
<ffml version="1.0">
<forcefield name="MMFF" derivedFrom="MMFF" base="MMFF">
<atomTypes>
<atomType
name="C100"
element="C"
mass="12.011"
annotation=""/>
<atomType
name="O101"
element="O"
mass="16"
annotation=""/>
<atomType
name="N102"
element="N"
mass="14.007"
annotation=""/>
<atomType
name="H103"
element="H"
mass="1.008"
annotation=""/>
</atomTypes>
<parameters>
</parameters>
</forcefield>
</ffml>

> <Initial Potential Energy>
79.61748

> <Initial RMS Gradient>
26.86984

> <Minimization Criteria>
CONJUG> Minimization exiting with gradient tolerance ( 0.0100000) satisfied.

> <CHARMm Energy>
6.80973

> <Potential Energy>
6.80973

> <RMS Gradient>
0.00978

> <Bond Energy>
4.4306

> <Angle Energy>
11.82693

> <STRBend>
0.47757

> <Dihedral Energy>
0.58717

> <OOPLane>
0.49681

> <Van der Waals Energy>
49.91246

> <Electrostatic Energy>
-60.92181

> <Hydrogen Bond Energy>
0

> <Solvation Free Energy>
0

> <HasGasteigerCharges>
true

> <REMARK99>
REMARK  99  MacroMolecule created from Mol2 file
REMARK  99  CHEMBL3765690
REMARK  99  PROTEIN
REMARK  99  GASTEIGER
REMARK  99
REMARK  99

$$$$
CHEMBL1784948
  SciTegic05292516403D

 73 78  0  0  0  0            999 V2000
   18.5619   -9.3233    0.4492 C   0  0
   17.9555  -10.5946    0.8813 C   0  0
   19.7855   -9.2086    0.5351 O   0  0
   17.0769  -11.2733    0.0259 C   0  0
   16.4770  -12.4550    0.4560 C   0  0
   16.7726  -12.9537    1.7240 C   0  0
   17.6657  -12.2898    2.5658 C   0  0
   18.2660  -11.1058    2.1422 C   0  0
   16.0136  -14.3980    2.2590 Cl  0  0
   13.8638   -6.8354    0.3543 C   0  0
   14.1929   -7.9660    1.0855 C   0  0
   15.4911   -8.5071    1.0326 C   0  0
   14.8440   -6.2208   -0.4313 C   0  0
   16.1488   -6.7598   -0.5283 C   0  0
   16.4622   -7.9203    0.1889 C   0  0
   17.8045   -8.2423   -0.0835 N   0  0
   18.2811   -7.3193   -1.0116 C   0  0
   17.3092   -6.3633   -1.2526 C   0  0
   19.6328   -7.4580   -1.6398 C   0  0
   17.4079   -5.1785   -2.1670 C   0  0
   18.7005   -4.4094   -2.0668 C   0  0
   19.2989   -3.9886   -3.0492 O   0  0
   19.1615   -4.1644   -0.8174 O   0  0
   12.6501   -6.2038    0.3499 O   0  0
   11.4961   -6.9699    0.7257 C   0  0
   10.2612   -6.1099    0.4364 C   0  0
    8.9755   -6.7978    0.7173 C   0  0
    7.9529   -6.4726    1.5870 C   0  0
    6.9764   -7.4194    1.4577 O   0  0
    7.4407   -8.2651    0.4905 C   0  0
    8.6267   -7.9317    0.0155 N   0  0
    7.6760   -5.3976    2.5560 C   0  0
    6.6025   -9.4014    0.1422 C   0  0
    5.4307   -9.7013    0.8464 C   0  0
    4.6714  -10.8249    0.5114 C   0  0
    5.0624  -11.6724   -0.5353 C   0  0
    6.2273  -11.3591   -1.2479 C   0  0
    6.9870  -10.2374   -0.9137 C   0  0
    4.2792  -12.8639   -0.8714 C   0  0
    2.9252  -12.7579   -1.2234 C   0  0
    2.1836  -13.8933   -1.5455 C   0  0
    2.7869  -15.1479   -1.5166 C   0  0
    4.1292  -15.2731   -1.1679 C   0  0
    4.8707  -14.1379   -0.8486 C   0  0
   16.8434  -10.8846   -0.9630 H   0  0
   15.7726  -12.9723   -0.1919 H   0  0
   17.8940  -12.6812    3.5520 H   0  0
   18.9536  -10.5765    2.7965 H   0  0
   13.4649   -8.4480    1.7324 H   0  0
   15.7131   -9.3684    1.6541 H   0  0
   14.5801   -5.3258   -0.9894 H   0  0
   19.6937   -6.8988   -2.5782 H   0  0
   19.8510   -8.5002   -1.8944 H   0  0
   20.4090   -7.0799   -0.9676 H   0  0
   17.3042   -5.5345   -3.1992 H   0  0
   16.5978   -4.4654   -1.9816 H   0  0
   18.6213   -4.6140   -0.1350 H   0  0
   11.4580   -7.9002    0.1456 H   0  0
   11.5369   -7.2061    1.7956 H   0  0
   10.3322   -5.1786    1.0117 H   0  0
   10.2764   -5.8007   -0.6167 H   0  0
    6.7293   -4.9021    2.3198 H   0  0
    8.4659   -4.6409    2.5456 H   0  0
    7.6089   -5.8054    3.5692 H   0  0
    5.1041   -9.0729    1.6722 H   0  0
    3.7767  -11.0466    1.0892 H   0  0
    6.5547  -11.9895   -2.0725 H   0  0
    7.8866  -10.0194   -1.4850 H   0  0
    2.4420  -11.7839   -1.2608 H   0  0
    1.1365  -13.8007   -1.8223 H   0  0
    2.2096  -16.0313   -1.7674 H   0  0
    4.5915  -16.2568   -1.1445 H   0  0
    5.9180  -14.2461   -0.5702 H   0  0
  1  2  1  0
  1  3  2  0
  2  4  2  0
  4  5  1  0
  4 45  1  0
  5  6  2  0
  5 46  1  0
  6  7  1  0
  6  9  1  0
  7  8  2  0
  7 47  1  0
  8  2  1  0
  8 48  1  0
 10 11  2  0
 10 24  1  0
 11 12  1  0
 11 49  1  0
 12 15  2  0
 12 50  1  0
 13 10  1  0
 13 51  1  0
 14 13  2  0
 14 15  1  0
 15 16  1  0
 16  1  1  0
 16 17  1  0
 17 18  2  0
 17 19  1  0
 18 14  1  0
 18 20  1  0
 19 52  1  0
 19 53  1  0
 19 54  1  0
 20 21  1  0
 20 55  1  0
 20 56  1  0
 21 22  2  0
 21 23  1  0
 23 57  1  0
 24 25  1  0
 25 26  1  0
 25 58  1  0
 25 59  1  0
 26 27  1  0
 26 60  1  0
 26 61  1  0
 27 28  2  0
 28 29  1  0
 28 32  1  0
 29 30  1  0
 30 31  2  0
 30 33  1  0
 31 27  1  0
 32 62  1  0
 32 63  1  0
 32 64  1  0
 33 34  2  0
 34 35  1  0
 34 65  1  0
 35 36  2  0
 35 66  1  0
 36 37  1  0
 36 39  1  0
 37 38  2  0
 37 67  1  0
 38 33  1  0
 38 68  1  0
 39 40  2  0
 40 41  1  0
 40 69  1  0
 41 42  2  0
 41 70  1  0
 42 43  1  0
 42 71  1  0
 43 44  2  0
 43 72  1  0
 44 39  1  0
 44 73  1  0
M  END
> <Name>
CHEMBL1784948

> <Clean Energy>
68.722298

> <chembl_id>
CHEMBL1784948

> <chembl_pref_name>
None

> <efficacy>
1.34

> <Forcefield>
MMFF

> <ForcefieldBase>
MMFF

> <ForcefieldFFML>
<?xml version="1.0" encoding="UTF-8"?>
<!DOCTYPE ffml SYSTEM "Ffml.dtd">
<ffml version="1.0">
<forcefield name="MMFF" derivedFrom="MMFF" base="MMFF">
<atomTypes>
<atomType
name="C100"
element="C"
mass="12.011"
annotation=""/>
<atomType
name="O101"
element="O"
mass="16"
annotation=""/>
<atomType
name="Cl102"
element="Cl"
mass="35.453"
annotation=""/>
<atomType
name="N103"
element="N"
mass="14.007"
annotation=""/>
<atomType
name="H104"
element="H"
mass="1.008"
annotation=""/>
</atomTypes>
<parameters>
</parameters>
</forcefield>
</ffml>

> <Initial Potential Energy>
804.64513

> <Initial RMS Gradient>
306.65213

> <Minimization Criteria>
CONJUG> Minimization exiting with gradient tolerance ( 0.0100000) satisfied.

> <CHARMm Energy>
147.02234

> <Potential Energy>
147.02234

> <RMS Gradient>
0.00992

> <Bond Energy>
9.84482

> <Angle Energy>
15.20605

> <STRBend>
-1.04673

> <Dihedral Energy>
15.72297

> <OOPLane>
0.1213

> <Van der Waals Energy>
78.06224

> <Electrostatic Energy>
29.1117

> <Hydrogen Bond Energy>
0

> <Solvation Free Energy>
0

> <HasGasteigerCharges>
true

> <REMARK99>
REMARK  99  MacroMolecule created from Mol2 file
REMARK  99  CHEMBL1784948
REMARK  99  PROTEIN
REMARK  99  GASTEIGER
REMARK  99
REMARK  99

$$$$
CHEMBL490832
  SciTegic05292516403D

 48 49  0  0  0  0            999 V2000
   -6.7393   -1.0662    0.6601 C   0  0
   -6.5064   -2.2473   -0.0449 C   0  0
   -5.2152   -2.5801   -0.4724 C   0  0
   -4.1603   -1.7013   -0.1889 C   0  0
   -4.3896   -0.5166    0.5265 C   0  0
   -5.6851   -0.1999    0.9453 C   0  0
   -3.2463    0.4036    0.7939 C   0  0
   -3.2957    1.2738    2.0351 C   0  0
   -2.2601    0.4314   -0.0551 N   0  0
   -1.2981    1.3805    0.3192 O   0  0
   -0.3228    1.4863   -0.7165 C   0  0
    0.5867    2.6421   -0.3876 C   0  0
    1.8837    2.4174    0.0981 C   0  0
    2.7117    3.4970    0.4123 C   0  0
    2.2426    4.7962    0.2490 C   0  0
    0.9546    5.0348   -0.2163 C   0  0
    0.1263    3.9606   -0.5354 C   0  0
   -4.9643   -3.8707   -1.2193 C   0  0
   -4.2226   -4.9337   -0.3915 C   0  0  1  0  0  0
   -5.2122   -5.6520    0.5468 C   0  0
   -3.6085   -5.8223   -1.3353 O   0  0
   -2.6010   -6.6468   -0.7514 C   0  0
   -2.0436   -7.5528   -1.8316 C   0  0
   -5.5947   -4.9185    1.6211 O   0  0
   -5.6194   -6.7952    0.3902 O   0  0
    3.0414    5.8303    0.5472 F   0  0
   -7.7503   -0.8163    0.9759 H   0  0
   -7.3473   -2.9043   -0.2629 H   0  0
   -3.1533   -1.9323   -0.5351 H   0  0
   -5.8985    0.7297    1.4659 H   0  0
   -3.5461    2.2987    1.7470 H   0  0
   -2.3237    1.2674    2.5375 H   0  0
   -4.0287    0.9120    2.7600 H   0  0
    0.2396    0.5478   -0.7833 H   0  0
   -0.8108    1.6644   -1.6828 H   0  0
    2.2512    1.4024    0.2370 H   0  0
    3.7203    3.3402    0.7825 H   0  0
    0.6083    6.0573   -0.3303 H   0  0
   -0.8832    4.1532   -0.8936 H   0  0
   -5.9121   -4.2804   -1.5934 H   0  0
   -4.3864   -3.6286   -2.1219 H   0  0
   -3.4313   -4.4809    0.2187 H   0  0
   -1.8003   -6.0174   -0.3479 H   0  0
   -3.0210   -7.2527    0.0575 H   0  0
   -1.2598   -8.2015   -1.4306 H   0  0
   -1.6272   -6.9618   -2.6540 H   0  0
   -2.8360   -8.1775   -2.2570 H   0  0
   -5.2169   -4.0176    1.6557 H   0  0
  1  2  2  0
  1 27  1  0
  2  3  1  0
  2 28  1  0
  3  4  2  0
  3 18  1  0
  4  5  1  0
  4 29  1  0
  5  6  2  0
  5  7  1  0
  6  1  1  0
  6 30  1  0
  7  8  1  0
  7  9  2  0
  8 31  1  0
  8 32  1  0
  8 33  1  0
  9 10  1  0
 10 11  1  0
 11 12  1  0
 11 34  1  0
 11 35  1  0
 12 13  2  0
 13 14  1  0
 13 36  1  0
 14 15  2  0
 14 37  1  0
 15 16  1  0
 15 26  1  0
 16 17  2  0
 16 38  1  0
 17 12  1  0
 17 39  1  0
 18 19  1  0
 18 40  1  0
 18 41  1  0
 19 20  1  0
 19 21  1  0
 19 42  1  0
 20 24  1  0
 20 25  2  0
 21 22  1  0
 22 23  1  0
 22 43  1  0
 22 44  1  0
 23 45  1  0
 23 46  1  0
 23 47  1  0
 24 48  1  0
M  END
> <Name>
CHEMBL490832

> <Clean Energy>
30.3437

> <chembl_id>
CHEMBL490832

> <chembl_pref_name>
None

> <efficacy>
2.14

> <Forcefield>
MMFF

> <ForcefieldBase>
MMFF

> <ForcefieldFFML>
<?xml version="1.0" encoding="UTF-8"?>
<!DOCTYPE ffml SYSTEM "Ffml.dtd">
<ffml version="1.0">
<forcefield name="MMFF" derivedFrom="MMFF" base="MMFF">
<atomTypes>
<atomType
name="C100"
element="C"
mass="12.011"
annotation=""/>
<atomType
name="N101"
element="N"
mass="14.007"
annotation=""/>
<atomType
name="O102"
element="O"
mass="16"
annotation=""/>
<atomType
name="F103"
element="F"
mass="18.998"
annotation=""/>
<atomType
name="H104"
element="H"
mass="1.008"
annotation=""/>
</atomTypes>
<parameters>
</parameters>
</forcefield>
</ffml>

> <Initial Potential Energy>
194.96652

> <Initial RMS Gradient>
26.15196

> <Minimization Criteria>
CONJUG> Minimization exiting with gradient tolerance ( 0.0100000) satisfied.

> <CHARMm Energy>
101.51233

> <Potential Energy>
101.51233

> <RMS Gradient>
0.00965

> <Bond Energy>
4.86217

> <Angle Energy>
6.80087

> <STRBend>
1.13867

> <Dihedral Energy>
1.49532

> <OOPLane>
0.03415

> <Van der Waals Energy>
46.00234

> <Electrostatic Energy>
41.17881

> <Hydrogen Bond Energy>
0

> <Solvation Free Energy>
0

> <HasGasteigerCharges>
true

> <REMARK99>
REMARK  99  MacroMolecule created from Mol2 file
REMARK  99  CHEMBL490832
REMARK  99  PROTEIN
REMARK  99  GASTEIGER
REMARK  99
REMARK  99

$$$$
CHEMBL477095
  SciTegic05292516403D

 57 60  0  0  0  0            999 V2000
    3.3447   -5.9202    2.1303 O   0  0
    3.6060   -5.3783    0.9185 C   0  0
    4.7753   -5.2355    0.5849 O   0  0
    2.3998   -5.1470    0.0322 C   0  0  1  0  0  0
    1.9393   -6.4142   -0.5489 N   0  0
    1.4260   -7.4859    0.1378 C   0  0
    1.1466   -8.4831   -0.7710 C   0  0
    1.4781   -7.9916   -2.0555 C   0  0
    1.9459   -6.7066   -1.8930 C   0  0
    1.2577   -4.3911    0.7260 C   0  0
    1.4748   -2.8941    0.8055 C   0  0
    1.4989   -2.2396    2.0423 C   0  0
    1.6446   -0.8489    2.1083 C   0  0
    1.7862   -0.0854    0.9417 C   0  0
    1.7720   -0.7417   -0.2931 C   0  0
    1.6027   -2.1274   -0.3614 C   0  0
    1.9370    1.4164    1.0198 C   0  0
    0.6031    2.1751    1.0270 C   0  0
   -0.0530    2.2548   -0.3552 C   0  0
   -1.3325    3.0168   -0.3361 C   0  0
   -2.6186    2.5483   -0.1785 C   0  0
   -3.2199    1.2194    0.0221 C   0  0
   -3.4653    3.6143   -0.2440 O   0  0
   -2.6480    4.7003   -0.4452 C   0  0
   -1.3642    4.3863   -0.5086 N   0  0
   -3.2959    6.0075   -0.5592 C   0  0
   -2.5132    7.1562   -0.7542 C   0  0
   -3.1034    8.4193   -0.8652 C   0  0
   -4.4879    8.5525   -0.7841 C   0  0
   -5.2816    7.4238   -0.5919 C   0  0
   -4.6897    6.1605   -0.4802 C   0  0
    4.2344   -6.1343    2.4898 H   0  0
    2.7663   -4.5566   -0.8176 H   0  0
    1.3151   -7.4682    1.2148 H   0  0
    0.7523   -9.4648   -0.5350 H   0  0
    1.3843   -8.5245   -2.9949 H   0  0
    2.2822   -5.9757   -2.6189 H   0  0
    0.3156   -4.5432    0.1808 H   0  0
    1.0812   -4.7946    1.7310 H   0  0
    1.3900   -2.8019    2.9676 H   0  0
    1.6417   -0.3592    3.0806 H   0  0
    1.8793   -0.1767   -1.2168 H   0  0
    1.5588   -2.5945   -1.3429 H   0  0
    2.4850    1.6589    1.9397 H   0  0
    2.5736    1.7698    0.1990 H   0  0
   -0.0887    1.7235    1.7492 H   0  0
    0.7943    3.1971    1.3795 H   0  0
    0.6346    2.7337   -1.0631 H   0  0
   -0.2502    1.2488   -0.7407 H   0  0
   -4.2872    1.2945    0.2532 H   0  0
   -2.7295    0.6970    0.8496 H   0  0
   -3.1079    0.6128   -0.8819 H   0  0
   -1.4298    7.0687   -0.8207 H   0  0
   -2.4774    9.2949   -1.0145 H   0  0
   -4.9481    9.5341   -0.8702 H   0  0
   -6.3621    7.5228   -0.5276 H   0  0
   -5.3298    5.2936   -0.3304 H   0  0
  1 32  1  0
  2  1  1  0
  2  3  2  0
  2  4  1  0
  4  5  1  0
  4 10  1  0
  4 33  1  0
  6  5  1  0
  6 34  1  0
  7  6  2  0
  7 35  1  0
  8  7  1  0
  8 36  1  0
  9  5  1  0
  9  8  2  0
  9 37  1  0
 10 11  1  0
 10 38  1  0
 10 39  1  0
 11 12  2  0
 11 16  1  0
 12 40  1  0
 13 12  1  0
 13 41  1  0
 14 13  2  0
 15 14  1  0
 15 42  1  0
 16 15  2  0
 16 43  1  0
 17 14  1  0
 17 18  1  0
 17 44  1  0
 17 45  1  0
 18 19  1  0
 18 46  1  0
 18 47  1  0
 19 20  1  0
 19 48  1  0
 19 49  1  0
 20 21  2  0
 20 25  1  0
 21 22  1  0
 21 23  1  0
 22 50  1  0
 22 51  1  0
 22 52  1  0
 24 23  1  0
 24 25  2  0
 24 26  1  0
 26 27  2  0
 26 31  1  0
 27 53  1  0
 28 27  1  0
 28 54  1  0
 29 28  2  0
 29 55  1  0
 30 29  1  0
 30 56  1  0
 31 30  2  0
 31 57  1  0
M  END
> <Name>
CHEMBL477095

> <Clean Energy>
63.9501

> <chembl_id>
CHEMBL477095

> <chembl_pref_name>
None

> <efficacy>
1.02173913

> <Forcefield>
MMFF

> <ForcefieldBase>
MMFF

> <ForcefieldFFML>
<?xml version="1.0" encoding="UTF-8"?>
<!DOCTYPE ffml SYSTEM "Ffml.dtd">
<ffml version="1.0">
<forcefield name="MMFF" derivedFrom="MMFF" base="MMFF">
<atomTypes>
<atomType
name="O100"
element="O"
mass="16"
annotation=""/>
<atomType
name="C101"
element="C"
mass="12.011"
annotation=""/>
<atomType
name="N102"
element="N"
mass="14.007"
annotation=""/>
<atomType
name="H103"
element="H"
mass="1.008"
annotation=""/>
</atomTypes>
<parameters>
</parameters>
</forcefield>
</ffml>

> <Initial Potential Energy>
135.20523

> <Initial RMS Gradient>
27.10432

> <Minimization Criteria>
STEEPD> Minimization exiting with gradient tolerance ( 3.0000000) satisfied.

> <CHARMm Energy>
46.40247

> <Potential Energy>
46.40247

> <RMS Gradient>
0.07599

> <Bond Energy>
5.26055

> <Angle Energy>
7.46477

> <STRBend>
0.49763

> <Dihedral Energy>
0.884

> <OOPLane>
0.36544

> <Van der Waals Energy>
42.77055

> <Electrostatic Energy>
-10.84046

> <Hydrogen Bond Energy>
0

> <Solvation Free Energy>
0

> <HasGasteigerCharges>
true

> <REMARK99>
REMARK  99  MacroMolecule created from Mol2 file
REMARK  99  CHEMBL477095
REMARK  99  PROTEIN
REMARK  99  GASTEIGER
REMARK  99
REMARK  99

$$$$
CHEMBL482827
  SciTegic05292516403D

 46 48  0  0  0  0            999 V2000
   -7.0423    2.1918    0.2634 C   0  0
   -6.8613    0.9190   -0.2768 C   0  0
   -5.5775    0.4605   -0.5990 C   0  0
   -4.4746    1.3079   -0.3950 C   0  0
   -4.6576    2.5959    0.1226 C   0  0
   -5.9438    3.0270    0.4669 C   0  0
   -3.5240    3.5328    0.2905 C   0  0
   -2.2025    3.3092   -0.3654 C   0  0
   -3.5891    4.6088    1.0117 N   0  0
   -2.3319    5.2559    0.8873 O   0  0
   -1.7113    4.7403   -0.3036 C   0  0  1  0  0  0
   -0.2038    4.8641   -0.2957 C   0  0
    0.5047    4.7059   -1.4996 C   0  0
    1.8933    4.8451   -1.5328 C   0  0
    2.5875    5.1314   -0.3576 C   0  0
    1.9024    5.2619    0.8501 C   0  0
    0.5128    5.1301    0.8801 C   0  0
   -5.3737   -0.9327   -1.1541 C   0  0
   -5.0779   -1.9726   -0.0555 C   0  0  1  0  0  0
   -6.3759   -2.7478    0.2320 C   0  0
   -3.9734   -2.7548   -0.5174 O   0  0
   -3.5297   -3.7250    0.4314 C   0  0
   -2.3001   -4.4101   -0.1327 C   0  0
   -7.2203   -2.1052    1.0795 O   0  0
   -6.6595   -3.8438   -0.2317 O   0  0
    4.6534    5.3706   -0.4066 I   0  0
   -8.0431    2.5412    0.5115 H   0  0
   -7.7366    0.2948   -0.4551 H   0  0
   -3.4795    0.9502   -0.6501 H   0  0
   -6.0988    4.0247    0.8744 H   0  0
   -1.6107    2.6261    0.2529 H   0  0
   -2.2752    2.9347   -1.3886 H   0  0
   -2.1101    5.3303   -1.1403 H   0  0
   -0.0338    4.4701   -2.4167 H   0  0
    2.4272    4.7567   -2.4781 H   0  0
    2.4408    5.4929    1.7679 H   0  0
   -0.0117    5.2384    1.8284 H   0  0
   -6.2565   -1.2158   -1.7427 H   0  0
   -4.5503   -0.8918   -1.8801 H   0  0
   -4.7561   -1.4889    0.8757 H   0  0
   -3.2771   -3.2312    1.3760 H   0  0
   -4.3099   -4.4698    0.6129 H   0  0
   -1.9186   -5.1621    0.5636 H   0  0
   -1.5091   -3.6796   -0.3324 H   0  0
   -2.5331   -4.8965   -1.0857 H   0  0
   -6.8830   -1.2492    1.4112 H   0  0
  1  2  2  0
  1 27  1  0
  2  3  1  0
  2 28  1  0
  3  4  2  0
  3 18  1  0
  4  5  1  0
  4 29  1  0
  5  6  2  0
  5  7  1  0
  6  1  1  0
  6 30  1  0
  7  8  1  0
  7  9  2  0
  8 11  1  0
  8 31  1  0
  8 32  1  0
  9 10  1  0
 10 11  1  0
 11 12  1  0
 11 33  1  0
 12 13  2  0
 13 14  1  0
 13 34  1  0
 14 15  2  0
 14 35  1  0
 15 16  1  0
 15 26  1  0
 16 17  2  0
 16 36  1  0
 17 12  1  0
 17 37  1  0
 18 19  1  0
 18 38  1  0
 18 39  1  0
 19 20  1  0
 19 21  1  0
 19 40  1  0
 20 24  1  0
 20 25  2  0
 21 22  1  0
 22 23  1  0
 22 41  1  0
 22 42  1  0
 23 43  1  0
 23 44  1  0
 23 45  1  0
 24 46  1  0
M  END
> <Name>
CHEMBL482827

> <Clean Energy>
46.8451

> <chembl_id>
CHEMBL482827

> <chembl_pref_name>
None

> <efficacy>
1.61

> <Forcefield>
MMFF

> <ForcefieldBase>
MMFF

> <ForcefieldFFML>
<?xml version="1.0" encoding="UTF-8"?>
<!DOCTYPE ffml SYSTEM "Ffml.dtd">
<ffml version="1.0">
<forcefield name="MMFF" derivedFrom="MMFF" base="MMFF">
<atomTypes>
<atomType
name="C100"
element="C"
mass="12.011"
annotation=""/>
<atomType
name="N101"
element="N"
mass="14.007"
annotation=""/>
<atomType
name="O102"
element="O"
mass="16"
annotation=""/>
<atomType
name="I103"
element="I"
mass="126.905"
annotation=""/>
<atomType
name="H104"
element="H"
mass="1.008"
annotation=""/>
</atomTypes>
<parameters>
</parameters>
</forcefield>
</ffml>

> <Initial Potential Energy>
241.30429

> <Initial RMS Gradient>
47.06465

> <Minimization Criteria>
CONJUG> Minimization exiting with gradient tolerance ( 0.0100000) satisfied.

> <CHARMm Energy>
96.10713

> <Potential Energy>
96.10713

> <RMS Gradient>
0.00763

> <Bond Energy>
5.07942

> <Angle Energy>
11.61655

> <STRBend>
0.84879

> <Dihedral Energy>
4.18849

> <OOPLane>
0.0101

> <Van der Waals Energy>
44.32895

> <Electrostatic Energy>
30.03484

> <Hydrogen Bond Energy>
0

> <Solvation Free Energy>
0

> <HasGasteigerCharges>
true

> <REMARK99>
REMARK  99  MacroMolecule created from Mol2 file
REMARK  99  CHEMBL482827
REMARK  99  PROTEIN
REMARK  99  GASTEIGER
REMARK  99
REMARK  99

$$$$
CHEMBL86817
  SciTegic05292516403D

 70 74  0  0  0  0            999 V2000
    1.6615   -2.9776   -0.7512 C   0  0
    1.3214    2.6355    0.4875 C   0  0
   -2.7494   -6.6183   -0.0124 C   0  0
   12.6133   -1.2110    0.4739 C   0  0
    1.7443    3.5069   -0.4793 O   0  0
   -3.7795   -6.5376   -0.9100 O   0  0
    0.5389   -3.9251   -0.5831 C   0  0
    1.5241   -1.5347   -0.4645 C   0  0
   -1.6348   -5.6952   -0.2123 C   0  0
    1.3631    1.2167    0.1496 C   0  0
   11.2738   -1.8959    0.1739 C   0  0  2  0  0  0
    0.9567    3.3478    1.6141 C   0  0
   -3.0302   -7.6115    0.9083 C   0  0
    2.8554   -3.5017   -1.1016 C   0  0
   12.9453   -0.1005    0.0880 O   0  0
   -4.7037   -7.4665   -0.5571 C   0  0
    1.6401    4.7601    0.0306 C   0  0
   10.1489   -1.1671    0.9174 C   0  0
   -4.2911   -8.1543    0.5575 C   0  0
    1.1677    4.7153    1.3194 C   0  0
    1.2516   -1.1153    0.8413 C   0  0
    0.5595   -4.8729    0.4459 C   0  0
    1.6743   -0.5755   -1.4714 C   0  0
   -0.5765   -3.8565   -1.4201 C   0  0
   -0.5160   -5.7444    0.6295 C   0  0
    1.1764    0.2467    1.1446 C   0  0
   -1.6484   -4.7382   -1.2381 C   0  0
    1.5986    0.7866   -1.1642 C   0  0
    8.7749   -1.7117    0.5873 C   0  0
   13.4285   -1.9919    1.2336 O   0  0
    6.2620   -2.8022   -0.0748 C   0  0
    4.1766   -2.7900   -1.2175 C   0  0
   11.3986   -3.2520    0.6699 O   0  0
    8.1981   -2.7114    1.3822 C   0  0
    8.0768   -1.2634   -0.5412 C   0  0
    6.9562   -3.2549    1.0473 C   0  0
    6.8279   -1.8054   -0.8701 C   0  0
    5.0641   -3.4237   -0.2958 O   0  0
   11.0139   -4.2213   -0.3104 C   0  0
   11.0479   -5.5906    0.3373 C   0  0
   11.1372   -1.8889   -0.9146 H   0  0
    0.5737    2.9316    2.5351 H   0  0
   -2.4047   -7.9173    1.7352 H   0  0
    2.9345   -4.5719   -1.2919 H   0  0
   -5.5822   -7.5156   -1.1857 H   0  0
    1.9313    5.5619   -0.6337 H   0  0
   10.3066   -1.2412    2.0017 H   0  0
   10.1694   -0.0945    0.6844 H   0  0
   -4.8296   -8.9498    1.0534 H   0  0
    0.9881    5.5636    1.9634 H   0  0
    1.0971   -1.8438    1.6349 H   0  0
    1.4062   -4.9405    1.1234 H   0  0
    1.8669   -0.8770   -2.4982 H   0  0
   -0.6282   -3.1209   -2.2195 H   0  0
   -0.4652   -6.4585    1.4461 H   0  0
    0.9814    0.5385    2.1741 H   0  0
   -2.5000   -4.6675   -1.9108 H   0  0
    1.7331    1.5132   -1.9628 H   0  0
   12.9465   -2.8377    1.3987 H   0  0
    4.5520   -2.9164   -2.2395 H   0  0
    4.0959   -1.7246   -0.9861 H   0  0
    8.7213   -3.0900    2.2580 H   0  0
    8.5003   -0.4897   -1.1788 H   0  0
    6.5213   -4.0403    1.6629 H   0  0
    6.3270   -1.4345   -1.7587 H   0  0
   10.0072   -4.0124   -0.6849 H   0  0
   11.7209   -4.1861   -1.1462 H   0  0
   10.7712   -6.3686   -0.3798 H   0  0
   10.3576   -5.6316    1.1865 H   0  0
   12.0473   -5.8083    0.7282 H   0  0
  2 10  1  0
  3  9  1  0
  4 11  1  0
  5  2  1  0
  6  3  1  0
  7  1  1  0
  8  1  1  0
  9 27  2  0
 10 26  1  0
 10 28  2  0
 11 18  1  0
 11 33  1  0
 11 41  1  0
 12  2  2  0
 12 42  1  0
 13  3  2  0
 13 43  1  0
 14  1  2  0
 14 44  1  0
 15  4  2  0
 16  6  1  0
 16 19  2  0
 16 45  1  0
 17  5  1  0
 17 20  2  0
 17 46  1  0
 18 29  1  0
 18 47  1  0
 18 48  1  0
 19 13  1  0
 19 49  1  0
 20 12  1  0
 20 50  1  0
 21  8  1  0
 21 51  1  0
 22  7  1  0
 22 52  1  0
 23  8  2  0
 23 53  1  0
 24  7  2  0
 24 54  1  0
 25  9  1  0
 25 22  2  0
 25 55  1  0
 26 21  2  0
 26 56  1  0
 27 24  1  0
 27 57  1  0
 28 23  1  0
 28 58  1  0
 29 35  1  0
 30  4  1  0
 30 59  1  0
 31 38  1  0
 32 14  1  0
 32 60  1  0
 32 61  1  0
 34 29  2  0
 34 36  1  0
 34 62  1  0
 35 37  2  0
 35 63  1  0
 36 31  2  0
 36 64  1  0
 37 31  1  0
 37 65  1  0
 38 32  1  0
 39 33  1  0
 39 66  1  0
 39 67  1  0
 40 39  1  0
 40 68  1  0
 40 69  1  0
 40 70  1  0
M  END
> <Name>
CHEMBL86817

> <Clean Energy>
62.143902

> <chembl_id>
CHEMBL86817

> <chembl_pref_name>
None

> <efficacy>
1.61

> <Forcefield>
MMFF

> <ForcefieldBase>
MMFF

> <ForcefieldFFML>
<?xml version="1.0" encoding="UTF-8"?>
<!DOCTYPE ffml SYSTEM "Ffml.dtd">
<ffml version="1.0">
<forcefield name="MMFF" derivedFrom="MMFF" base="MMFF">
<atomTypes>
<atomType
name="C100"
element="C"
mass="12.011"
annotation=""/>
<atomType
name="O101"
element="O"
mass="16"
annotation=""/>
<atomType
name="H102"
element="H"
mass="1.008"
annotation=""/>
</atomTypes>
<parameters>
</parameters>
</forcefield>
</ffml>

> <Initial Potential Energy>
347.74603

> <Initial RMS Gradient>
62.51304

> <Minimization Criteria>
STEEPD> Minimization exiting with gradient tolerance ( 3.0000000) satisfied.

> <CHARMm Energy>
93.41354

> <Potential Energy>
93.41354

> <RMS Gradient>
0.05065

> <Bond Energy>
7.35663

> <Angle Energy>
11.7158

> <STRBend>
0.49183

> <Dihedral Energy>
12.5141

> <OOPLane>
0.04981

> <Van der Waals Energy>
70.43865

> <Electrostatic Energy>
-9.15328

> <Hydrogen Bond Energy>
0

> <Solvation Free Energy>
0

> <HasGasteigerCharges>
true

> <REMARK99>
REMARK  99  MacroMolecule created from Mol2 file
REMARK  99  CHEMBL86817
REMARK  99  PROTEIN
REMARK  99  GASTEIGER
REMARK  99
REMARK  99

$$$$
CHEMBL328455
  SciTegic05292516403D

 76 80  0  0  0  0            999 V2000
   -0.0478   -3.0623   -0.8447 C   0  0
   10.8643   -1.1319   -0.3900 C   0  0
   -1.2363   -3.9355   -0.6683 C   0  0
   -0.0540   -1.6304   -0.4645 C   0  0
    9.5308   -1.8778   -0.2605 C   0  0  2  0  0  0
    0.0991    1.0744    0.3478 C   0  0
   -3.5405   -5.5663   -0.3350 C   0  0
    1.0746   -3.6367   -1.3341 C   0  0
   11.3015   -0.6369   -1.4187 O   0  0
    8.3686   -0.8850   -0.3585 C   0  0
    0.1791   -0.6196   -1.4036 C   0  0
   -2.4612   -3.5631   -1.2302 C   0  0
   -0.2966   -1.2743    0.8666 C   0  0
   -1.1741   -5.1157    0.0816 C   0  0
   -3.5943   -4.3703   -1.0687 C   0  0
    0.2734    0.7145   -0.9974 C   0  0
   -2.3099   -5.9179    0.2435 C   0  0
   -0.2230    0.0638    1.2666 C   0  0
    0.2769    2.4674    0.7802 C   0  0
   -4.7276   -6.4295   -0.1806 C   0  0
    7.0229   -1.5716   -0.4745 C   0  0
   11.5474   -1.0927    0.7875 O   0  0
    4.5642   -2.9152   -0.6884 C   0  0
    2.4175   -3.0021   -1.5936 C   0  0
    9.5414   -2.4979    1.0488 O   0  0
    6.2904   -1.9087    0.6731 C   0  0
    6.5096   -1.9250   -1.7300 C   0  0
    5.0730   -2.5866    0.5657 C   0  0
    5.2884   -2.5985   -1.8368 C   0  0
    3.3783   -3.6004   -0.7155 O   0  0
   -0.7261    3.1538    1.4803 C   0  0
    1.4793    3.1447    0.5121 C   0  0
   -5.9763   -5.9022    0.1941 C   0  0
   -4.6456   -7.8154   -0.4041 C   0  0
    9.3074   -3.9077    0.9762 C   0  0
    9.2474   -4.4515    2.3892 C   0  0
    1.6750    4.4631    0.9274 C   0  0
   -7.0974   -6.7261    0.3411 C   0  0
   -5.7638   -8.6416   -0.2555 C   0  0
   -0.5300    4.4718    1.8982 C   0  0
    0.6684    5.1256    1.6211 C   0  0
   -6.9882   -8.0955    0.1166 C   0  0
    9.5038   -2.6361   -1.0532 H   0  0
    1.0587   -4.6941   -1.5983 H   0  0
    8.3549   -0.2302    0.5230 H   0  0
    8.5016   -0.2228   -1.2237 H   0  0
    0.3167   -0.8608   -2.4553 H   0  0
   -2.5477   -2.6474   -1.8106 H   0  0
   -0.5544   -2.0337    1.6036 H   0  0
   -0.2452   -5.4234    0.5562 H   0  0
   -4.5213   -4.0555   -1.5411 H   0  0
    0.4819    1.4786   -1.7441 H   0  0
   -2.2267   -6.8205    0.8449 H   0  0
   -0.4224    0.3105    2.3088 H   0  0
   10.9808   -1.5550    1.4528 H   0  0
    2.6845   -3.2115   -2.6363 H   0  0
    2.4136   -1.9191   -1.4483 H   0  0
    6.6724   -1.6617    1.6615 H   0  0
    7.0630   -1.6919   -2.6376 H   0  0
    4.5156   -2.8532    1.4601 H   0  0
    4.9341   -2.8933   -2.8200 H   0  0
   -1.6750    2.6676    1.7005 H   0  0
    2.2877    2.6408   -0.0150 H   0  0
   -6.0848   -4.8373    0.3900 H   0  0
   -3.7035   -8.2680   -0.7091 H   0  0
    8.3646   -4.1107    0.4585 H   0  0
   10.1285   -4.3825    0.4282 H   0  0
    9.0772   -5.5317    2.3847 H   0  0
    8.4424   -3.9690    2.9534 H   0  0
   10.1804   -4.2424    2.9229 H   0  0
    2.6158    4.9635    0.7121 H   0  0
   -8.0552   -6.3025    0.6353 H   0  0
   -5.6736   -9.7098   -0.4327 H   0  0
   -1.3147    4.9896    2.4420 H   0  0
    0.8159    6.1496    1.9499 H   0  0
   -7.8569   -8.7359    0.2332 H   0  0
  2  5  1  0
  3  1  1  0
  4  1  1  0
  5 10  1  0
  5 25  1  0
  5 43  1  0
  6 18  1  0
  7 17  1  0
  8  1  2  0
  8 44  1  0
  9  2  2  0
 10 21  1  0
 10 45  1  0
 10 46  1  0
 11  4  2  0
 11 47  1  0
 12  3  2  0
 12 48  1  0
 13  4  1  0
 13 49  1  0
 14  3  1  0
 14 50  1  0
 15  7  2  0
 15 12  1  0
 15 51  1  0
 16  6  2  0
 16 11  1  0
 16 52  1  0
 17 14  2  0
 17 53  1  0
 18 13  2  0
 18 54  1  0
 19  6  1  0
 20  7  1  0
 21 27  1  0
 22  2  1  0
 22 55  1  0
 23 30  1  0
 24  8  1  0
 24 56  1  0
 24 57  1  0
 26 21  2  0
 26 28  1  0
 26 58  1  0
 27 29  2  0
 27 59  1  0
 28 23  2  0
 28 60  1  0
 29 23  1  0
 29 61  1  0
 30 24  1  0
 31 19  1  0
 31 62  1  0
 32 19  2  0
 32 63  1  0
 33 20  2  0
 33 64  1  0
 34 20  1  0
 34 65  1  0
 35 25  1  0
 35 66  1  0
 35 67  1  0
 36 35  1  0
 36 68  1  0
 36 69  1  0
 36 70  1  0
 37 32  1  0
 37 71  1  0
 38 33  1  0
 38 42  2  0
 38 72  1  0
 39 34  2  0
 39 73  1  0
 40 31  2  0
 40 41  1  0
 40 74  1  0
 41 37  2  0
 41 75  1  0
 42 39  1  0
 42 76  1  0
M  END
> <Name>
CHEMBL328455

> <Clean Energy>
28.5378

> <chembl_id>
CHEMBL328455

> <chembl_pref_name>
None

> <efficacy>
1.01

> <Forcefield>
MMFF

> <ForcefieldBase>
MMFF

> <ForcefieldFFML>
<?xml version="1.0" encoding="UTF-8"?>
<!DOCTYPE ffml SYSTEM "Ffml.dtd">
<ffml version="1.0">
<forcefield name="MMFF" derivedFrom="MMFF" base="MMFF">
<atomTypes>
<atomType
name="C100"
element="C"
mass="12.011"
annotation=""/>
<atomType
name="O101"
element="O"
mass="16"
annotation=""/>
<atomType
name="H102"
element="H"
mass="1.008"
annotation=""/>
</atomTypes>
<parameters>
</parameters>
</forcefield>
</ffml>

> <Initial Potential Energy>
402.47154

> <Initial RMS Gradient>
61.37859

> <Minimization Criteria>
CONJUG> Minimization exiting with gradient tolerance ( 0.0100000) satisfied.

> <CHARMm Energy>
126.49022

> <Potential Energy>
126.49022

> <RMS Gradient>
0.00973

> <Bond Energy>
11.24012

> <Angle Energy>
8.66289

> <STRBend>
-0.38145

> <Dihedral Energy>
25.70698

> <OOPLane>
0.06177

> <Van der Waals Energy>
95.49912

> <Electrostatic Energy>
-14.29922

> <Hydrogen Bond Energy>
0

> <Solvation Free Energy>
0

> <HasGasteigerCharges>
true

> <REMARK99>
REMARK  99  MacroMolecule created from Mol2 file
REMARK  99  CHEMBL328455
REMARK  99  PROTEIN
REMARK  99  GASTEIGER
REMARK  99
REMARK  99

$$$$
CHEMBL3597427
  SciTegic05292516403D

 70 74  0  0  0  0            999 V2000
   -1.3487    1.0814    0.5476 C   0  0
   -1.5067   -0.2786    0.3060 C   0  0
   -0.4882   -1.0241   -0.2841 C   0  0
   -0.1385    1.7204    0.2376 C   0  0
    0.9087    0.9910   -0.3679 C   0  0
    0.7085   -0.3704   -0.6164 C   0  0
    1.8644   -0.8459   -1.1963 N   0  0
    2.7630    0.1768   -1.3581 C   0  0
    2.2222    1.3325   -0.8324 C   0  0
    2.8987    2.6692   -0.7900 C   0  0
    4.1563    2.6239    0.0575 C   0  0
    3.9097    2.4991    1.3866 O   0  0
    5.2974    2.6458   -0.3891 O   0  0
   -2.4490    1.6944    1.0894 O   0  0
   -2.4762    3.1124    0.9614 C   0  0
   -3.8987    3.6131    1.1547 C   0  0
   -3.9120    5.1254    1.0068 C   0  0
   -5.2571    5.5989    1.0134 O   0  0
   -5.4138    6.9031    0.6131 C   0  0
   -6.7081    7.2578    0.2349 C   0  0
   -6.9750    8.5500   -0.2156 C   0  0
   -5.9461    9.4894   -0.2904 C   0  0
   -4.6496    9.1515    0.0921 C   0  0
   -4.3951    7.8652    0.5698 C   0  0
   -3.7286   10.1576   -0.0268 O   0  0
   -2.3473    9.7737    0.0065 C   0  0
   -1.4883   10.9841   -0.2955 C   0  0
   -0.3553   10.8507   -1.1126 C   0  0
    0.4869   11.9381   -1.3550 C   0  0
    0.2091   13.1718   -0.7774 C   0  0
   -0.9083   13.3166    0.0437 C   0  0
   -1.7515   12.2304    0.2872 C   0  0
    2.1016   -2.2190   -1.6184 C   0  0
    4.2541   -3.2622   -0.8116 C   0  0
    2.8972   -2.9836   -0.5904 C   0  0
    2.3035   -3.4231    0.6031 C   0  0
    3.0471   -4.1377    1.5444 C   0  0
    4.3914   -4.4168    1.3069 C   0  0
    4.9951   -3.9755    0.1318 C   0  0
   -2.4462   -0.7641    0.5621 H   0  0
   -0.6378   -2.0808   -0.4789 H   0  0
    0.0125    2.7730    0.4402 H   0  0
    3.7306   -0.0068   -1.8103 H   0  0
    3.1802    2.9747   -1.8047 H   0  0
    2.2416    3.4533   -0.3997 H   0  0
    2.9501    2.5136    1.5827 H   0  0
   -1.8183    3.5543    1.7196 H   0  0
   -2.1412    3.4177   -0.0387 H   0  0
   -4.5700    3.1469    0.4231 H   0  0
   -4.2890    3.3156    2.1354 H   0  0
   -3.3610    5.5718    1.8437 H   0  0
   -3.4256    5.3941    0.0597 H   0  0
   -7.5158    6.5293    0.2829 H   0  0
   -7.9836    8.8227   -0.5145 H   0  0
   -6.1575   10.4926   -0.6521 H   0  0
   -3.4037    7.6187    0.9220 H   0  0
   -2.0761    9.4115    1.0052 H   0  0
   -2.1650    8.9925   -0.7419 H   0  0
   -0.1145    9.8901   -1.5640 H   0  0
    1.3644   11.8006   -1.9820 H   0  0
    0.8539   14.0286   -0.9657 H   0  0
   -1.1271   14.2852    0.4900 H   0  0
   -2.6218   12.3655    0.9283 H   0  0
    1.1428   -2.7111   -1.8109 H   0  0
    2.6287   -2.1774   -2.5795 H   0  0
    4.7478   -2.9232   -1.7200 H   0  0
    1.2584   -3.2066    0.8139 H   0  0
    2.5796   -4.4774    2.4651 H   0  0
    4.9715   -4.9752    2.0382 H   0  0
    6.0461   -4.1864   -0.0497 H   0  0
  1  2  2  0
  1 14  1  0
  2  3  1  0
  2 40  1  0
  3  6  2  0
  3 41  1  0
  4  1  1  0
  4 42  1  0
  5  4  2  0
  5  6  1  0
  6  7  1  0
  7  8  1  0
  7 33  1  0
  8  9  2  0
  8 43  1  0
  9  5  1  0
  9 10  1  0
 10 11  1  0
 10 44  1  0
 10 45  1  0
 11 12  1  0
 11 13  2  0
 12 46  1  0
 14 15  1  0
 15 16  1  0
 15 47  1  0
 15 48  1  0
 16 17  1  0
 16 49  1  0
 16 50  1  0
 17 18  1  0
 17 51  1  0
 17 52  1  0
 18 19  1  0
 19 20  2  0
 20 21  1  0
 20 53  1  0
 21 22  2  0
 21 54  1  0
 22 23  1  0
 22 55  1  0
 23 24  2  0
 23 25  1  0
 24 19  1  0
 24 56  1  0
 25 26  1  0
 26 27  1  0
 26 57  1  0
 26 58  1  0
 27 28  2  0
 28 29  1  0
 28 59  1  0
 29 30  2  0
 29 60  1  0
 30 31  1  0
 30 61  1  0
 31 32  2  0
 31 62  1  0
 32 27  1  0
 32 63  1  0
 33 64  1  0
 33 65  1  0
 34 35  2  0
 34 66  1  0
 35 33  1  0
 35 36  1  0
 36 37  2  0
 36 67  1  0
 37 38  1  0
 37 68  1  0
 38 39  2  0
 38 69  1  0
 39 34  1  0
 39 70  1  0
M  END
> <Name>
CHEMBL3597427

> <Clean Energy>
28.4774

> <chembl_id>
CHEMBL3597427

> <chembl_pref_name>
None

> <efficacy>
0.946

> <Forcefield>
MMFF

> <ForcefieldBase>
MMFF

> <ForcefieldFFML>
<?xml version="1.0" encoding="UTF-8"?>
<!DOCTYPE ffml SYSTEM "Ffml.dtd">
<ffml version="1.0">
<forcefield name="MMFF" derivedFrom="MMFF" base="MMFF">
<atomTypes>
<atomType
name="C100"
element="C"
mass="12.011"
annotation=""/>
<atomType
name="N101"
element="N"
mass="14.007"
annotation=""/>
<atomType
name="O102"
element="O"
mass="16"
annotation=""/>
<atomType
name="H103"
element="H"
mass="1.008"
annotation=""/>
</atomTypes>
<parameters>
</parameters>
</forcefield>
</ffml>

> <Initial Potential Energy>
237.71905

> <Initial RMS Gradient>
34.17263

> <Minimization Criteria>
CONJUG> Minimization exiting with gradient tolerance ( 0.0100000) satisfied.

> <CHARMm Energy>
85.80246

> <Potential Energy>
85.80246

> <RMS Gradient>
0.00816

> <Bond Energy>
6.8731

> <Angle Energy>
19.48947

> <STRBend>
-0.23445

> <Dihedral Energy>
0.44503

> <OOPLane>
0.08932

> <Van der Waals Energy>
80.95012

> <Electrostatic Energy>
-21.81012

> <Hydrogen Bond Energy>
0

> <Solvation Free Energy>
0

> <HasGasteigerCharges>
true

> <REMARK99>
REMARK  99  MacroMolecule created from Mol2 file
REMARK  99  CHEMBL3597427
REMARK  99  PROTEIN
REMARK  99  GASTEIGER
REMARK  99
REMARK  99

$$$$
CHEMBL3397717
  SciTegic05292516403D

 68 70  0  0  0  0            999 V2000
    1.2637   -3.1495   -2.1851 C   0  0
    2.6842   -2.9404   -1.7984 C   0  0
    3.4763   -4.1731   -1.4434 C   0  0
    3.7397   -4.3095    0.0604 C   0  0
    4.5246   -5.5859    0.3675 C   0  0
    4.8416   -5.7029    1.8496 C   0  0
    0.3291   -2.6233   -1.6009 O   0  0
    1.0786   -3.9328   -3.2734 O   0  0
    3.0096   -1.6302   -1.6788 C   0  0
    4.2438   -0.9794   -1.1583 C   0  0
    4.1579    0.2541   -0.4515 C   0  0
    5.3304    0.8091    0.0789 C   0  0
    6.5664    0.1739   -0.0843 C   0  0
    6.6728   -1.0111   -0.8046 C   0  0
    5.5205   -1.5545   -1.3802 C   0  0
    2.9083    0.8376   -0.2962 O   0  0
    2.8637    2.2128    0.1434 C   0  0
    1.4774    2.8158    0.3110 C   0  0
    1.3286    4.2101    0.1977 C   0  0
    0.1120    4.8427    0.4916 C   0  0
   -0.9989    4.1031    0.9154 C   0  0
   -0.8501    2.7051    1.0216 C   0  0
    0.3704    2.0691    0.7246 C   0  0
   -2.3117    4.7876    1.2802 C   0  0
   -2.4876    6.0016    0.6809 F   0  0
   -3.3875    4.0301    0.9259 F   0  0
   -2.4331    5.0226    2.6186 F   0  0
    7.9428   -1.5136   -0.8465 O   0  0
    8.1646   -2.8065   -1.3962 C   0  0
    9.2403   -3.5227   -0.5965 C   0  0
    8.9223   -4.7210    0.0582 C   0  0
    9.8799   -5.4281    0.8007 C   0  0
   11.1870   -4.9152    0.8901 C   0  0
   11.5371   -3.7101    0.2523 C   0  0
   10.5519   -3.0271   -0.4939 C   0  0
   12.9592   -3.1821    0.3486 C   0  0
   13.7465   -3.6068   -0.6797 F   0  0
   13.0154   -1.8207    0.3314 F   0  0
   13.6033   -3.5691    1.4874 F   0  0
    9.4982   -6.7243    1.4822 C   0  0
    8.1642   -6.9947    1.4093 F   0  0
    9.8121   -6.7222    2.8083 F   0  0
   10.1455   -7.8020    0.9547 F   0  0
    2.9306   -5.0677   -1.7702 H   0  0
    4.4134   -4.1952   -2.0084 H   0  0
    4.2996   -3.4460    0.4348 H   0  0
    2.7855   -4.3279    0.6020 H   0  0
    3.9471   -6.4625    0.0520 H   0  0
    5.4612   -5.5931   -0.2013 H   0  0
    5.3963   -6.6255    2.0470 H   0  0
    3.9244   -5.7230    2.4468 H   0  0
    5.4539   -4.8604    2.1870 H   0  0
    1.8677   -4.3993   -3.6199 H   0  0
    2.2339   -0.8978   -1.9260 H   0  0
    5.3292    1.7271    0.6549 H   0  0
    7.4564    0.6132    0.3628 H   0  0
    5.6003   -2.4316   -2.0114 H   0  0
    3.3336    2.2880    1.1317 H   0  0
    3.4248    2.8177   -0.5801 H   0  0
    2.1766    4.8254   -0.0999 H   0  0
    0.0461    5.9256    0.4002 H   0  0
   -1.6926    2.0965    1.3508 H   0  0
    0.4562    0.9883    0.8415 H   0  0
    7.2677   -3.4331   -1.3878 H   0  0
    8.4949   -2.7013   -2.4358 H   0  0
    7.9050   -5.1093   -0.0028 H   0  0
   11.9431   -5.4540    1.4690 H   0  0
   10.7958   -2.0890   -0.9931 H   0  0
  1  2  1  0
  1  7  2  0
  1  8  1  0
  2  3  1  0
  2  9  2  0
  3  4  1  0
  3 44  1  0
  3 45  1  0
  4  5  1  0
  4 46  1  0
  4 47  1  0
  5  6  1  0
  5 48  1  0
  5 49  1  0
  6 50  1  0
  6 51  1  0
  6 52  1  0
  8 53  1  0
  9 10  1  0
  9 54  1  0
 10 11  1  0
 10 15  2  0
 11 12  2  0
 11 16  1  0
 12 13  1  0
 12 55  1  0
 13 14  2  0
 13 56  1  0
 14 15  1  0
 14 28  1  0
 15 57  1  0
 16 17  1  0
 17 18  1  0
 17 58  1  0
 17 59  1  0
 18 19  1  0
 18 23  2  0
 19 20  2  0
 19 60  1  0
 20 21  1  0
 20 61  1  0
 21 22  2  0
 21 24  1  0
 22 23  1  0
 22 62  1  0
 23 63  1  0
 24 25  1  0
 24 26  1  0
 24 27  1  0
 28 29  1  0
 29 30  1  0
 29 64  1  0
 29 65  1  0
 30 31  1  0
 30 35  2  0
 31 32  2  0
 31 66  1  0
 32 33  1  0
 32 40  1  0
 33 34  2  0
 33 67  1  0
 34 35  1  0
 34 36  1  0
 35 68  1  0
 36 37  1  0
 36 38  1  0
 36 39  1  0
 40 41  1  0
 40 42  1  0
 40 43  1  0
M  END
> <Name>
CHEMBL3397717

> <Clean Energy>
49.608898

> <chembl_id>
CHEMBL3397717

> <chembl_pref_name>
None

> <efficacy>
0.978157645

> <Forcefield>
MMFF

> <ForcefieldBase>
MMFF

> <ForcefieldFFML>
<?xml version="1.0" encoding="UTF-8"?>
<!DOCTYPE ffml SYSTEM "Ffml.dtd">
<ffml version="1.0">
<forcefield name="MMFF" derivedFrom="MMFF" base="MMFF">
<atomTypes>
<atomType
name="C100"
element="C"
mass="12.011"
annotation=""/>
<atomType
name="O101"
element="O"
mass="16"
annotation=""/>
<atomType
name="F102"
element="F"
mass="18.998"
annotation=""/>
<atomType
name="H103"
element="H"
mass="1.008"
annotation=""/>
</atomTypes>
<parameters>
</parameters>
</forcefield>
</ffml>

> <Initial Potential Energy>
249.32072

> <Initial RMS Gradient>
27.58618

> <Minimization Criteria>
CONJUG> Minimization exiting with gradient tolerance ( 0.0100000) satisfied.

> <CHARMm Energy>
135.29183

> <Potential Energy>
135.29183

> <RMS Gradient>
0.00998

> <Bond Energy>
11.02848

> <Angle Energy>
23.42941

> <STRBend>
1.26737

> <Dihedral Energy>
4.47134

> <OOPLane>
0.27072

> <Van der Waals Energy>
67.9518

> <Electrostatic Energy>
26.87272

> <Hydrogen Bond Energy>
0

> <Solvation Free Energy>
0

> <HasGasteigerCharges>
true

> <REMARK99>
REMARK  99  MacroMolecule created from Mol2 file
REMARK  99  CHEMBL3397717
REMARK  99  PROTEIN
REMARK  99  GASTEIGER
REMARK  99
REMARK  99

$$$$
CHEMBL4745121
  SciTegic05292516403D

 52 55  0  0  0  0            999 V2000
   16.4232  -21.1006   -1.1327 C   0  0
   16.3711  -22.4306   -0.7055 C   0  0
   17.5435  -23.1354   -0.3843 C   0  0
   17.6474  -20.4243   -1.2085 C   0  0
   18.8272  -21.1101   -0.8800 C   0  0
   18.7638  -22.4428   -0.4814 C   0  0
   20.0830  -22.7913   -0.2764 N   0  0
   20.8743  -21.6979   -0.5731 C   0  0
   20.1228  -20.6657   -0.9124 N   0  0
   20.5674  -24.0859    0.1404 C   0  0
   22.3734  -21.7132   -0.6220 C   0  0
   22.8859  -22.0647    0.6682 O   0  0
   24.2487  -22.1109    0.7976 C   0  0
   24.7061  -22.4404    2.0784 C   0  0
   26.0729  -22.5380    2.3511 C   0  0
   27.0005  -22.2979    1.3406 C   0  0
   26.5491  -21.9498    0.0630 C   0  0
   25.1773  -21.8692   -0.2147 C   0  0
   27.5012  -21.6985   -1.0407 C   0  0
   28.5488  -20.9339   -0.6693 O   0  0
   27.3258  -22.1138   -2.1718 O   0  0
   15.1838  -23.1394   -0.6550 O   0  0
   14.0931  -22.5349   -0.0681 C   0  0
   14.1911  -21.8115    1.1222 C   0  0
   13.0473  -21.2446    1.6799 C   0  0
   11.8257  -21.4299    1.0411 C   0  0
   11.7005  -22.1519   -0.0964 N   0  0
   12.8227  -22.7022   -0.6233 C   0  0
   12.7052  -23.4613   -1.7738 O   0  0
   11.3542  -23.6451   -2.1945 C   0  0
   10.5780  -20.8211    1.6090 C   0  0
   15.5169  -20.5770   -1.4237 H   0  0
   17.4941  -24.1772   -0.0878 H   0  0
   17.6939  -19.3929   -1.5415 H   0  0
   21.4155  -24.3705   -0.4869 H   0  0
   19.7793  -24.8335    0.0285 H   0  0
   20.8684  -24.0162    1.1886 H   0  0
   22.6958  -22.4421   -1.3752 H   0  0
   22.7237  -20.7123   -0.9029 H   0  0
   23.9903  -22.6321    2.8749 H   0  0
   26.4088  -22.8132    3.3485 H   0  0
   28.0613  -22.4128    1.5495 H   0  0
   24.8742  -21.6170   -1.2271 H   0  0
   28.4615  -20.5341    0.2165 H   0  0
   15.1477  -21.6856    1.6212 H   0  0
   13.1112  -20.6702    2.5987 H   0  0
   11.3683  -24.2799   -3.0858 H   0  0
   10.8935  -22.6910   -2.4729 H   0  0
   10.7660  -24.1613   -1.4278 H   0  0
    9.7065  -21.0766    0.9977 H   0  0
   10.6690  -19.7308    1.6352 H   0  0
   10.4035  -21.1929    2.6234 H   0  0
  1  2  2  0
  1 32  1  0
  2  3  1  0
  2 22  1  0
  3  6  2  0
  3 33  1  0
  4  1  1  0
  4 34  1  0
  5  4  2  0
  5  6  1  0
  6  7  1  0
  7  8  1  0
  7 10  1  0
  8  9  2  0
  8 11  1  0
  9  5  1  0
 10 35  1  0
 10 36  1  0
 10 37  1  0
 11 12  1  0
 11 38  1  0
 11 39  1  0
 12 13  1  0
 13 14  2  0
 14 15  1  0
 14 40  1  0
 15 16  2  0
 15 41  1  0
 16 17  1  0
 16 42  1  0
 17 18  2  0
 17 19  1  0
 18 13  1  0
 18 43  1  0
 19 20  1  0
 19 21  2  0
 20 44  1  0
 22 23  1  0
 23 24  2  0
 24 25  1  0
 24 45  1  0
 25 26  2  0
 25 46  1  0
 26 27  1  0
 26 31  1  0
 27 28  2  0
 28 23  1  0
 28 29  1  0
 29 30  1  0
 30 47  1  0
 30 48  1  0
 30 49  1  0
 31 50  1  0
 31 51  1  0
 31 52  1  0
M  END
> <Name>
CHEMBL4745121

> <Clean Energy>
32.1404

> <chembl_id>
CHEMBL4745121

> <chembl_pref_name>
None

> <efficacy>
1.31

> <Forcefield>
MMFF

> <ForcefieldBase>
MMFF

> <ForcefieldFFML>
<?xml version="1.0" encoding="UTF-8"?>
<!DOCTYPE ffml SYSTEM "Ffml.dtd">
<ffml version="1.0">
<forcefield name="MMFF" derivedFrom="MMFF" base="MMFF">
<atomTypes>
<atomType
name="C100"
element="C"
mass="12.011"
annotation=""/>
<atomType
name="N101"
element="N"
mass="14.007"
annotation=""/>
<atomType
name="O102"
element="O"
mass="16"
annotation=""/>
<atomType
name="H103"
element="H"
mass="1.008"
annotation=""/>
</atomTypes>
<parameters>
</parameters>
</forcefield>
</ffml>

> <Initial Potential Energy>
216.40891

> <Initial RMS Gradient>
49.30757

> <Minimization Criteria>
STEEPD> Minimization exiting with gradient tolerance ( 3.0000000) satisfied.

> <CHARMm Energy>
74.95881

> <Potential Energy>
74.95881

> <RMS Gradient>
0.07016

> <Bond Energy>
5.03185

> <Angle Energy>
19.54667

> <STRBend>
0.85101

> <Dihedral Energy>
10.11039

> <OOPLane>
0.17681

> <Van der Waals Energy>
63.48208

> <Electrostatic Energy>
-24.24

> <Hydrogen Bond Energy>
0

> <Solvation Free Energy>
0

> <HasGasteigerCharges>
true

> <REMARK99>
REMARK  99  MacroMolecule created from Mol2 file
REMARK  99  CHEMBL4745121
REMARK  99  PROTEIN
REMARK  99  GASTEIGER
REMARK  99
REMARK  99

$$$$
CHEMBL221474
  SciTegic05292516403D

 54 57  0  0  0  0            999 V2000
    7.3209  -17.0348    1.3693 C   0  0
    6.6184  -15.7125    1.5757 C   0  0
    7.2702  -14.8163    0.5166 C   0  0  1  0  0  0
    7.8289  -15.7009   -0.5020 O   0  0
    7.5049  -17.0541   -0.1290 C   0  0
    2.6369  -14.2672    0.0459 C   0  0
    2.4652  -15.1198   -1.0352 C   0  0
    3.4926  -15.4847   -1.8368 N   0  0
    4.7218  -15.0034   -1.5484 C   0  0
    4.9904  -14.1672   -0.4747 C   0  0
    3.9132  -13.7844    0.3244 C   0  0
    1.2739  -15.6929   -1.3925 O   0  0
    0.0985  -15.2712   -0.6915 C   0  0
   -1.1166  -15.9470   -1.3275 C   0  0
   -2.4255  -15.3969   -0.8677 C   0  0
   -2.9435  -14.1296   -1.0380 C   0  0
   -4.1957  -14.1103   -0.4982 O   0  0
   -4.4084  -15.3910   -0.0514 C   0  0
   -3.3653  -16.1865   -0.2269 N   0  0
   -5.7331  -15.6713    0.5123 C   0  0
   -6.6887  -14.6535    0.6846 C   0  0
   -7.9587  -14.9335    1.2037 C   0  0
   -8.2905  -16.2386    1.5576 C   0  0
   -7.3618  -17.2641    1.3983 C   0  0
   -6.0890  -16.9797    0.8799 C   0  0
   -2.4677  -12.8796   -1.6565 C   0  0
    6.3902  -13.7315   -0.1366 C   0  0
    8.4580  -14.0746    1.1530 C   0  0
    9.6348  -14.3546    0.5439 O   0  0
    8.3575  -13.3016    2.0945 O   0  0
   -9.8505  -16.5843    2.1928 Cl  0  0
    8.2959  -17.0198    1.8702 H   0  0
    6.7540  -17.8923    1.7410 H   0  0
    5.5503  -15.8654    1.3970 H   0  0
    6.7258  -15.3432    2.6004 H   0  0
    6.5835  -17.3415   -0.6462 H   0  0
    8.3106  -17.7212   -0.4468 H   0  0
    1.8240  -13.9730    0.6956 H   0  0
    5.5116  -15.3358   -2.2189 H   0  0
    4.0592  -13.1308    1.1817 H   0  0
    0.1632  -15.5603    0.3647 H   0  0
    0.0027  -14.1816   -0.7659 H   0  0
   -1.0579  -15.8504   -2.4195 H   0  0
   -1.0727  -17.0251   -1.1288 H   0  0
   -6.4473  -13.6280    0.4102 H   0  0
   -8.6811  -14.1303    1.3251 H   0  0
   -7.6203  -18.2847    1.6716 H   0  0
   -5.3742  -17.7921    0.7555 H   0  0
   -3.3009  -12.3088   -2.0782 H   0  0
   -1.7601  -13.0875   -2.4649 H   0  0
   -1.9656  -12.2550   -0.9116 H   0  0
    6.8668  -13.3761   -1.0607 H   0  0
    6.3238  -12.8503    0.5154 H   0  0
    9.4692  -14.9893   -0.1918 H   0  0
  1  2  1  0
  1 32  1  0
  1 33  1  0
  2  3  1  0
  2 34  1  0
  2 35  1  0
  3  4  1  0
  3 28  1  0
  4  5  1  0
  5  1  1  0
  5 36  1  0
  5 37  1  0
  6  7  2  0
  6 38  1  0
  7  8  1  0
  7 12  1  0
  8  9  2  0
  9 10  1  0
  9 39  1  0
 10 11  2  0
 10 27  1  0
 11  6  1  0
 11 40  1  0
 12 13  1  0
 13 14  1  0
 13 41  1  0
 13 42  1  0
 14 15  1  0
 14 43  1  0
 14 44  1  0
 15 16  2  0
 16 17  1  0
 16 26  1  0
 17 18  1  0
 18 19  2  0
 18 20  1  0
 19 15  1  0
 20 21  2  0
 21 22  1  0
 21 45  1  0
 22 23  2  0
 22 46  1  0
 23 24  1  0
 23 31  1  0
 24 25  2  0
 24 47  1  0
 25 20  1  0
 25 48  1  0
 26 49  1  0
 26 50  1  0
 26 51  1  0
 27  3  1  0
 27 52  1  0
 27 53  1  0
 28 29  1  0
 28 30  2  0
 29 54  1  0
M  END
> <Name>
CHEMBL221474

> <Clean Energy>
76.875504

> <chembl_id>
CHEMBL221474

> <chembl_pref_name>
None

> <efficacy>
0.967391304

> <Forcefield>
MMFF

> <ForcefieldBase>
MMFF

> <ForcefieldFFML>
<?xml version="1.0" encoding="UTF-8"?>
<!DOCTYPE ffml SYSTEM "Ffml.dtd">
<ffml version="1.0">
<forcefield name="MMFF" derivedFrom="MMFF" base="MMFF">
<atomTypes>
<atomType
name="C100"
element="C"
mass="12.011"
annotation=""/>
<atomType
name="O101"
element="O"
mass="16"
annotation=""/>
<atomType
name="N102"
element="N"
mass="14.007"
annotation=""/>
<atomType
name="Cl103"
element="Cl"
mass="35.453"
annotation=""/>
<atomType
name="H104"
element="H"
mass="1.008"
annotation=""/>
</atomTypes>
<parameters>
</parameters>
</forcefield>
</ffml>

> <Initial Potential Energy>
189.93705

> <Initial RMS Gradient>
30.71903

> <Minimization Criteria>
CONJUG> Minimization exiting with gradient tolerance ( 0.0100000) satisfied.

> <CHARMm Energy>
68.67208

> <Potential Energy>
68.67208

> <RMS Gradient>
0.0089

> <Bond Energy>
5.39187

> <Angle Energy>
14.2991

> <STRBend>
0.90676

> <Dihedral Energy>
1.63757

> <OOPLane>
0.05552

> <Van der Waals Energy>
48.71719

> <Electrostatic Energy>
-2.33593

> <Hydrogen Bond Energy>
0

> <Solvation Free Energy>
0

> <HasGasteigerCharges>
true

> <REMARK99>
REMARK  99  MacroMolecule created from Mol2 file
REMARK  99  CHEMBL221474
REMARK  99  PROTEIN
REMARK  99  GASTEIGER
REMARK  99
REMARK  99

$$$$
CHEMBL221850
  SciTegic05292516403D

 53 55  0  0  0  0            999 V2000
   14.1126  -14.0483    0.8596 C   0  0
   13.9089  -14.7644   -0.3099 C   0  0
   14.8627  -14.8995   -1.2589 N   0  0
   16.0355  -14.2484   -1.0650 C   0  0
   16.3129  -13.4655    0.0481 C   0  0
   15.3251  -13.3856    1.0334 C   0  0
   12.7362  -15.4243   -0.5809 O   0  0
   11.5527  -14.6787   -0.2639 C   0  0
   10.3792  -15.2822   -1.0354 C   0  0
    9.0963  -14.5515   -0.8369 C   0  0
    8.7130  -13.3133   -1.3088 C   0  0
    7.4298  -13.0858   -0.9014 O   0  0
    7.0770  -14.2193   -0.2129 C   0  0
    8.0486  -15.1114   -0.1309 N   0  0
    5.7121  -14.2800    0.3093 C   0  0
    4.7858  -13.2460    0.0954 C   0  0
    3.4822  -13.3367    0.5933 C   0  0
    3.0902  -14.4625    1.3138 C   0  0
    3.9929  -15.4981    1.5369 C   0  0
    5.2958  -15.4061    1.0371 C   0  0
    9.3523  -12.2590   -2.1149 C   0  0
   17.6004  -12.6900    0.1858 C   0  0
   18.9075  -13.4742    0.5349 C   0  0  1  0  0  0
   19.8904  -12.3873    1.0807 C   0  0
   20.9636  -12.8483    1.7619 O   0  0
   19.7354  -11.1841    0.9084 O   0  0
   18.6200  -14.5348    1.6112 C   0  0
   19.3562  -14.0988   -0.6789 O   0  0
   20.6765  -14.6162   -0.7110 C   0  0
   13.3581  -13.9939    1.6339 H   0  0
   16.7627  -14.3670   -1.8657 H   0  0
   15.4805  -12.7981    1.9351 H   0  0
   11.3541  -14.7454    0.8126 H   0  0
   11.6769  -13.6234   -0.5405 H   0  0
   10.6214  -15.3076   -2.1056 H   0  0
   10.2575  -16.3325   -0.7416 H   0  0
    5.0733  -12.3604   -0.4676 H   0  0
    2.7739  -12.5308    0.4166 H   0  0
    2.0775  -14.5348    1.7002 H   0  0
    3.6892  -16.3785    2.0969 H   0  0
    5.9904  -16.2255    1.2154 H   0  0
    8.6392  -11.8227   -2.8211 H   0  0
   10.1937  -12.6583   -2.6894 H   0  0
    9.7277  -11.4612   -1.4670 H   0  0
   17.7508  -12.1385   -0.7537 H   0  0
   17.4200  -11.9187    0.9482 H   0  0
   21.0667  -13.8132    1.8319 H   0  0
   19.5173  -15.0861    1.9066 H   0  0
   17.9263  -15.2987    1.2438 H   0  0
   18.2037  -14.0804    2.5168 H   0  0
   20.8123  -15.1319   -1.6660 H   0  0
   20.8427  -15.3403    0.0899 H   0  0
   21.4116  -13.8087   -0.6620 H   0  0
  1  2  2  0
  1 30  1  0
  2  3  1  0
  2  7  1  0
  3  4  2  0
  4  5  1  0
  4 31  1  0
  5  6  2  0
  5 22  1  0
  6  1  1  0
  6 32  1  0
  7  8  1  0
  8  9  1  0
  8 33  1  0
  8 34  1  0
  9 10  1  0
  9 35  1  0
  9 36  1  0
 10 11  2  0
 11 12  1  0
 11 21  1  0
 12 13  1  0
 13 14  2  0
 13 15  1  0
 14 10  1  0
 15 16  2  0
 16 17  1  0
 16 37  1  0
 17 18  2  0
 17 38  1  0
 18 19  1  0
 18 39  1  0
 19 20  2  0
 19 40  1  0
 20 15  1  0
 20 41  1  0
 21 42  1  0
 21 43  1  0
 21 44  1  0
 22 23  1  0
 22 45  1  0
 22 46  1  0
 23 24  1  0
 23 27  1  0
 23 28  1  0
 24 25  1  0
 24 26  2  0
 25 47  1  0
 27 48  1  0
 27 49  1  0
 27 50  1  0
 28 29  1  0
 29 51  1  0
 29 52  1  0
 29 53  1  0
M  END
> <Name>
CHEMBL221850

> <Clean Energy>
41.797699

> <chembl_id>
CHEMBL221850

> <chembl_pref_name>
None

> <efficacy>
1.260869565

> <Forcefield>
MMFF

> <ForcefieldBase>
MMFF

> <ForcefieldFFML>
<?xml version="1.0" encoding="UTF-8"?>
<!DOCTYPE ffml SYSTEM "Ffml.dtd">
<ffml version="1.0">
<forcefield name="MMFF" derivedFrom="MMFF" base="MMFF">
<atomTypes>
<atomType
name="C100"
element="C"
mass="12.011"
annotation=""/>
<atomType
name="N101"
element="N"
mass="14.007"
annotation=""/>
<atomType
name="O102"
element="O"
mass="16"
annotation=""/>
<atomType
name="H103"
element="H"
mass="1.008"
annotation=""/>
</atomTypes>
<parameters>
</parameters>
</forcefield>
</ffml>

> <Initial Potential Energy>
153.41917

> <Initial RMS Gradient>
27.20454

> <Minimization Criteria>
CONJUG> Minimization exiting with gradient tolerance ( 0.0100000) satisfied.

> <CHARMm Energy>
88.06466

> <Potential Energy>
88.06466

> <RMS Gradient>
0.00988

> <Bond Energy>
5.95255

> <Angle Energy>
14.4517

> <STRBend>
1.28342

> <Dihedral Energy>
6.8362

> <OOPLane>
0.03029

> <Van der Waals Energy>
49.04566

> <Electrostatic Energy>
10.46485

> <Hydrogen Bond Energy>
0

> <Solvation Free Energy>
0

> <HasGasteigerCharges>
true

> <REMARK99>
REMARK  99  MacroMolecule created from Mol2 file
REMARK  99  CHEMBL221850
REMARK  99  PROTEIN
REMARK  99  GASTEIGER
REMARK  99
REMARK  99

$$$$
CHEMBL222117
  SciTegic05292516403D

 53 55  0  0  0  0            999 V2000
    1.9999  -19.0500   -0.7239 C   0  0
    1.7758  -19.8376    0.3949 C   0  0
    2.7221  -20.0474    1.3379 N   0  0
    3.9066  -19.4047    1.1933 C   0  0
    4.2044  -18.5575    0.1349 C   0  0
    3.2244  -18.3980   -0.8481 C   0  0
    0.5931  -20.4944    0.6234 O   0  0
   -0.5844  -19.7564    0.2707 C   0  0
   -1.7756  -20.3544    1.0196 C   0  0
   -3.0548  -19.6257    0.7888 C   0  0
   -3.4237  -18.3575    1.1868 C   0  0
   -4.7092  -18.1451    0.7795 O   0  0
   -5.0808  -19.3180    0.1712 C   0  0
   -4.1176  -20.2224    0.1365 N   0  0
   -6.4563  -19.4008   -0.3215 C   0  0
   -7.3432  -18.3145   -0.2360 C   0  0
   -8.6573  -18.4227   -0.7012 C   0  0
   -9.1008  -19.6194   -1.2593 C   0  0
   -8.2386  -20.7079   -1.3534 C   0  0
   -6.9241  -20.5974   -0.8879 C   0  0
   -2.7682  -17.2610    1.9205 C   0  0
    5.5058  -17.7979    0.0526 C   0  0
    6.7988  -18.5843   -0.3396 C   0  0  2  0  0  0
    7.8103  -17.4842   -0.8008 C   0  0
    8.8860  -17.9220   -1.4933 O   0  0
    7.6733  -16.2911   -0.5579 O   0  0
    6.5003  -19.5595   -1.4913 C   0  0
    7.2207  -19.3007    0.8322 O   0  0
    8.5250  -19.8576    0.8381 C   0  0
    1.2533  -18.9302   -1.4981 H   0  0
    4.6256  -19.5871    1.9888 H   0  0
    3.3966  -17.7562   -1.7088 H   0  0
   -0.4700  -18.6984    0.5391 H   0  0
   -0.7552  -19.8352   -0.8097 H   0  0
   -1.8899  -21.4063    0.7290 H   0  0
   -1.5581  -20.3727    2.0951 H   0  0
   -7.0150  -17.3725    0.1992 H   0  0
   -9.3343  -17.5751   -0.6262 H   0  0
  -10.1218  -19.7056   -1.6192 H   0  0
   -8.5857  -21.6432   -1.7855 H   0  0
   -6.2625  -21.4585   -0.9644 H   0  0
   -3.4888  -16.7211    2.5423 H   0  0
   -2.3185  -16.5516    1.2194 H   0  0
   -1.9795  -17.6439    2.5754 H   0  0
    5.3441  -16.9771   -0.6607 H   0  0
    5.6613  -17.3103    1.0261 H   0  0
    8.9712  -18.8823   -1.6236 H   0  0
    7.3891  -20.1076   -1.8169 H   0  0
    6.1042  -19.0323   -2.3659 H   0  0
    5.7862  -20.3318   -1.1862 H   0  0
    8.6373  -20.4394    1.7570 H   0  0
    9.2833  -19.0708    0.8478 H   0  0
    8.6767  -20.5314   -0.0077 H   0  0
  1  2  2  0
  1 30  1  0
  2  3  1  0
  2  7  1  0
  3  4  2  0
  4  5  1  0
  4 31  1  0
  5  6  2  0
  5 22  1  0
  6  1  1  0
  6 32  1  0
  7  8  1  0
  8  9  1  0
  8 33  1  0
  8 34  1  0
  9 10  1  0
  9 35  1  0
  9 36  1  0
 10 11  2  0
 11 12  1  0
 11 21  1  0
 12 13  1  0
 13 14  2  0
 13 15  1  0
 14 10  1  0
 15 16  2  0
 16 17  1  0
 16 37  1  0
 17 18  2  0
 17 38  1  0
 18 19  1  0
 18 39  1  0
 19 20  2  0
 19 40  1  0
 20 15  1  0
 20 41  1  0
 21 42  1  0
 21 43  1  0
 21 44  1  0
 22 23  1  0
 22 45  1  0
 22 46  1  0
 23 24  1  0
 23 27  1  0
 23 28  1  0
 24 25  1  0
 24 26  2  0
 25 47  1  0
 27 48  1  0
 27 49  1  0
 27 50  1  0
 28 29  1  0
 29 51  1  0
 29 52  1  0
 29 53  1  0
M  END
> <Name>
CHEMBL222117

> <Clean Energy>
41.4035

> <chembl_id>
CHEMBL222117

> <chembl_pref_name>
None

> <efficacy>
1.054347826

> <Forcefield>
MMFF

> <ForcefieldBase>
MMFF

> <ForcefieldFFML>
<?xml version="1.0" encoding="UTF-8"?>
<!DOCTYPE ffml SYSTEM "Ffml.dtd">
<ffml version="1.0">
<forcefield name="MMFF" derivedFrom="MMFF" base="MMFF">
<atomTypes>
<atomType
name="C100"
element="C"
mass="12.011"
annotation=""/>
<atomType
name="N101"
element="N"
mass="14.007"
annotation=""/>
<atomType
name="O102"
element="O"
mass="16"
annotation=""/>
<atomType
name="H103"
element="H"
mass="1.008"
annotation=""/>
</atomTypes>
<parameters>
</parameters>
</forcefield>
</ffml>

> <Initial Potential Energy>
164.28008

> <Initial RMS Gradient>
28.58144

> <Minimization Criteria>
STEEPD> Minimization exiting with gradient tolerance ( 3.0000000) satisfied.

> <CHARMm Energy>
88.10742

> <Potential Energy>
88.10742

> <RMS Gradient>
0.09355

> <Bond Energy>
5.96834

> <Angle Energy>
14.86907

> <STRBend>
1.25731

> <Dihedral Energy>
6.30032

> <OOPLane>
0.03197

> <Van der Waals Energy>
49.17813

> <Electrostatic Energy>
10.50229

> <Hydrogen Bond Energy>
0

> <Solvation Free Energy>
0

> <HasGasteigerCharges>
true

> <REMARK99>
REMARK  99  MacroMolecule created from Mol2 file
REMARK  99  CHEMBL222117
REMARK  99  PROTEIN
REMARK  99  GASTEIGER
REMARK  99
REMARK  99

$$$$
CHEMBL1813006
  SciTegic05292516403D

 51 53  0  0  0  0            999 V2000
    2.4964  -15.9396   -1.5752 C   0  0
    1.5590  -16.6147   -0.7920 C   0  0
    1.9268  -17.0897    0.4647 C   0  0
    3.2158  -16.8477    0.9516 C   0  0
    4.1563  -16.1492    0.1796 C   0  0
    3.7864  -15.7007   -1.0936 C   0  0
    5.5625  -15.9323    0.6921 C   0  0
    6.5140  -17.0512    0.2601 C   0  0  1  0  0  0
    7.9431  -16.6548    0.6231 C   0  0
    6.2161  -18.2616    0.9967 O   0  0
    5.7748  -19.3179    0.1381 C   0  0
    5.4008  -20.5055    1.0015 C   0  0
    8.5649  -15.7229    0.1326 O   0  0
    8.4844  -17.4678    1.5727 O   0  0
    0.3419  -16.8298   -1.3742 O   0  0
   -0.8048  -16.7322   -0.5166 C   0  0
   -1.6493  -17.9626   -0.5306 C   0  0
   -2.9240  -17.9441    0.0069 N   0  0
   -3.4198  -19.1556   -0.2108 C   0  0
   -2.5036  -19.9893   -0.8191 O   0  0
   -1.3946  -19.2225   -1.0256 C   0  0
   -0.2526  -19.8666   -1.6984 C   0  0
   -4.7417  -19.5619    0.1781 C   0  0
   -5.7045  -18.7881    0.7967 C   0  0
   -6.9101  -19.5097    1.0457 C   0  0
   -6.8326  -20.8155    0.6104 C   0  0
   -5.3106  -21.1542   -0.0945 S   0  0
   -7.8682  -21.8835    0.6874 C   0  0
    2.2171  -15.5936   -2.5674 H   0  0
    1.2405  -17.6698    1.0742 H   0  0
    3.4869  -17.2302    1.9340 H   0  0
    4.4956  -15.1660   -1.7218 H   0  0
    5.9210  -14.9585    0.3344 H   0  0
    5.5339  -15.8599    1.7875 H   0  0
    6.4893  -17.2324   -0.8218 H   0  0
    4.9074  -18.9952   -0.4465 H   0  0
    6.5869  -19.5925   -0.5439 H   0  0
    5.0624  -21.3440    0.3866 H   0  0
    4.6031  -20.2360    1.7017 H   0  0
    6.2564  -20.8301    1.6028 H   0  0
    7.7745  -18.1159    1.8106 H   0  0
   -0.5605  -16.4587    0.5163 H   0  0
   -1.4081  -15.9055   -0.9116 H   0  0
    0.6431  -19.8124   -1.0725 H   0  0
   -0.0407  -19.3737   -2.6520 H   0  0
   -0.4558  -20.9225   -1.9030 H   0  0
   -5.5526  -17.7478    1.0600 H   0  0
   -7.7862  -19.0860    1.5219 H   0  0
   -8.1431  -22.2308   -0.3141 H   0  0
   -8.7765  -21.5130    1.1741 H   0  0
   -7.5034  -22.7382    1.2665 H   0  0
  1  2  2  0
  1 29  1  0
  2  3  1  0
  2 15  1  0
  3  4  2  0
  3 30  1  0
  4  5  1  0
  4 31  1  0
  5  6  2  0
  5  7  1  0
  6  1  1  0
  6 32  1  0
  7  8  1  0
  7 33  1  0
  7 34  1  0
  8  9  1  0
  8 10  1  0
  8 35  1  0
  9 13  2  0
  9 14  1  0
 10 11  1  0
 11 12  1  0
 11 36  1  0
 11 37  1  0
 12 38  1  0
 12 39  1  0
 12 40  1  0
 14 41  1  0
 15 16  1  0
 16 17  1  0
 16 42  1  0
 16 43  1  0
 17 18  1  0
 18 19  2  0
 19 20  1  0
 19 23  1  0
 20 21  1  0
 21 17  2  0
 21 22  1  0
 22 44  1  0
 22 45  1  0
 22 46  1  0
 23 24  2  0
 24 25  1  0
 24 47  1  0
 25 26  2  0
 25 48  1  0
 26 27  1  0
 26 28  1  0
 27 23  1  0
 28 49  1  0
 28 50  1  0
 28 51  1  0
M  END
> <Name>
CHEMBL1813006

> <Clean Energy>
56.7444

> <chembl_id>
CHEMBL1813006

> <chembl_pref_name>
None

> <efficacy>
1.2

> <Forcefield>
MMFF

> <ForcefieldBase>
MMFF

> <ForcefieldFFML>
<?xml version="1.0" encoding="UTF-8"?>
<!DOCTYPE ffml SYSTEM "Ffml.dtd">
<ffml version="1.0">
<forcefield name="MMFF" derivedFrom="MMFF" base="MMFF">
<atomTypes>
<atomType
name="C100"
element="C"
mass="12.011"
annotation=""/>
<atomType
name="O101"
element="O"
mass="16"
annotation=""/>
<atomType
name="N102"
element="N"
mass="14.007"
annotation=""/>
<atomType
name="S103"
element="S"
mass="32.066"
annotation=""/>
<atomType
name="H104"
element="H"
mass="1.008"
annotation=""/>
</atomTypes>
<parameters>
</parameters>
</forcefield>
</ffml>

> <Initial Potential Energy>
150.16035

> <Initial RMS Gradient>
24.32603

> <Minimization Criteria>
CONJUG> Minimization exiting with gradient tolerance ( 0.0100000) satisfied.

> <CHARMm Energy>
67.14788

> <Potential Energy>
67.14788

> <RMS Gradient>
0.00994

> <Bond Energy>
3.64628

> <Angle Energy>
12.16855

> <STRBend>
0.01954

> <Dihedral Energy>
4.2878

> <OOPLane>
0.06316

> <Van der Waals Energy>
32.68652

> <Electrostatic Energy>
14.27603

> <Hydrogen Bond Energy>
0

> <Solvation Free Energy>
0

> <HasGasteigerCharges>
true

> <REMARK99>
REMARK  99  MacroMolecule created from Mol2 file
REMARK  99  CHEMBL1813006
REMARK  99  PROTEIN
REMARK  99  GASTEIGER
REMARK  99
REMARK  99

$$$$
CHEMBL247925
  SciTegic05292516403D

 73 77  0  0  0  0            999 V2000
   -9.7466  -22.0722   -0.2693 C   0  0
   -8.5413  -21.4256    0.0144 C   0  0
   -8.3712  -20.0612   -0.2681 C   0  0
   -9.4413  -19.3599   -0.8439 C   0  0
  -10.6477  -20.0053   -1.1280 C   0  0
  -10.7982  -21.3602   -0.8405 C   0  0
   -7.1036  -19.4100    0.0471 C   0  0
   -6.0038  -19.9198    0.5749 N   0  0
   -5.1358  -18.8489    0.6801 C   0  0
   -5.7568  -17.7162    0.1951 C   0  0
   -7.0036  -18.0710   -0.2333 O   0  0
   -5.4000  -16.2922    0.0705 C   0  0
   -3.8003  -18.9998    1.3204 C   0  0
   -2.6104  -18.8076    0.3765 C   0  0
   -1.4243  -18.8430    1.1812 O   0  0
   -0.2170  -18.5793    0.5963 C   0  0
    0.8636  -18.5206    1.4833 C   0  0
    2.1630  -18.2615    1.0280 C   0  0
    2.4104  -18.0678   -0.3363 C   0  0
    1.3214  -18.1218   -1.2221 C   0  0
    0.0194  -18.3779   -0.7605 C   0  0
    3.8172  -17.7973   -0.8519 C   0  0
    4.8040  -18.8540   -0.5052 N   0  0
    6.1526  -18.4962   -1.0180 C   0  0
    4.3934  -20.1470   -1.1427 C   0  0
    5.0836  -21.3049   -0.4337 C   0  0
    5.4395  -22.3392   -0.9783 O   0  0
    5.2517  -21.0742    0.8935 O   0  0
    6.7542  -17.2746   -0.3638 C   0  0
    6.9010  -16.0854   -1.0921 C   0  0
    7.4907  -14.9609   -0.5098 C   0  0
    7.9504  -15.0111    0.8081 C   0  0
    7.7957  -16.1905    1.5419 C   0  0
    7.2001  -17.3151    0.9634 C   0  0
    8.5766  -13.9793    1.4781 O   0  0
    8.7632  -12.7991    0.8039 C   0  0
    9.9640  -12.5791    0.1271 C   0  0
   10.1587  -11.3767   -0.5488 C   0  0
    9.1577  -10.4027   -0.5309 C   0  0
    7.9720  -10.6134    0.1763 C   0  0
    7.7750  -11.8147    0.8529 C   0  0
   -9.8615  -23.1293   -0.0441 H   0  0
   -7.7252  -21.9914    0.4620 H   0  0
   -9.3435  -18.3014   -1.0756 H   0  0
  -11.4674  -19.4481   -1.5730 H   0  0
  -11.7358  -21.8623   -1.0608 H   0  0
   -6.2449  -15.6540    0.3475 H   0  0
   -5.1161  -16.0609   -0.9605 H   0  0
   -4.5587  -16.0389    0.7226 H   0  0
   -3.7223  -18.2848    2.1501 H   0  0
   -3.7250  -19.9893    1.7895 H   0  0
   -2.5844  -19.6126   -0.3674 H   0  0
   -2.6852  -17.8394   -0.1327 H   0  0
    0.6908  -18.6762    2.5460 H   0  0
    2.9795  -18.2136    1.7462 H   0  0
    1.4760  -17.9686   -2.2885 H   0  0
   -0.7819  -18.4175   -1.4897 H   0  0
    3.7906  -17.6491   -1.9399 H   0  0
    4.1152  -16.8389   -0.4098 H   0  0
    6.8537  -19.3224   -0.8402 H   0  0
    6.1251  -18.3578   -2.1077 H   0  0
    3.3234  -20.3483   -1.0308 H   0  0
    4.6382  -20.1662   -2.2107 H   0  0
    4.8703  -20.1820    1.0718 H   0  0
    6.5732  -16.0254   -2.1277 H   0  0
    7.5944  -14.0637   -1.1129 H   0  0
    8.1602  -16.2385    2.5658 H   0  0
    7.1106  -18.2288    1.5468 H   0  0
   10.7260  -13.3533    0.1173 H   0  0
   11.0889  -11.1846   -1.0804 H   0  0
    9.3080   -9.4653   -1.0600 H   0  0
    7.2140   -9.8335    0.2028 H   0  0
    6.8548  -12.0032    1.3997 H   0  0
  1  2  2  0
  1 42  1  0
  2  3  1  0
  2 43  1  0
  3  4  2  0
  3  7  1  0
  4  5  1  0
  4 44  1  0
  5  6  2  0
  5 45  1  0
  6  1  1  0
  6 46  1  0
  7  8  2  0
  8  9  1  0
  9 10  2  0
  9 13  1  0
 10 11  1  0
 10 12  1  0
 11  7  1  0
 12 47  1  0
 12 48  1  0
 12 49  1  0
 13 14  1  0
 13 50  1  0
 13 51  1  0
 14 15  1  0
 14 52  1  0
 14 53  1  0
 15 16  1  0
 16 17  2  0
 17 18  1  0
 17 54  1  0
 18 19  2  0
 18 55  1  0
 19 20  1  0
 19 22  1  0
 20 21  2  0
 20 56  1  0
 21 16  1  0
 21 57  1  0
 22 23  1  0
 22 58  1  0
 22 59  1  0
 23 24  1  0
 23 25  1  0
 24 29  1  0
 24 60  1  0
 24 61  1  0
 25 26  1  0
 25 62  1  0
 25 63  1  0
 26 27  2  0
 26 28  1  0
 28 64  1  0
 29 30  2  0
 30 31  1  0
 30 65  1  0
 31 32  2  0
 31 66  1  0
 32 33  1  0
 32 35  1  0
 33 34  2  0
 33 67  1  0
 34 29  1  0
 34 68  1  0
 35 36  1  0
 36 37  2  0
 37 38  1  0
 37 69  1  0
 38 39  2  0
 38 70  1  0
 39 40  1  0
 39 71  1  0
 40 41  2  0
 40 72  1  0
 41 36  1  0
 41 73  1  0
M  END
> <Name>
CHEMBL247925

> <Clean Energy>
48.5051

> <chembl_id>
CHEMBL247925

> <chembl_pref_name>
None

> <efficacy>
1.11

> <Forcefield>
MMFF

> <ForcefieldBase>
MMFF

> <ForcefieldFFML>
<?xml version="1.0" encoding="UTF-8"?>
<!DOCTYPE ffml SYSTEM "Ffml.dtd">
<ffml version="1.0">
<forcefield name="MMFF" derivedFrom="MMFF" base="MMFF">
<atomTypes>
<atomType
name="C100"
element="C"
mass="12.011"
annotation=""/>
<atomType
name="N101"
element="N"
mass="14.007"
annotation=""/>
<atomType
name="O102"
element="O"
mass="16"
annotation=""/>
<atomType
name="H103"
element="H"
mass="1.008"
annotation=""/>
</atomTypes>
<parameters>
</parameters>
</forcefield>
</ffml>

> <Initial Potential Energy>
329.62778

> <Initial RMS Gradient>
38.60446

> <Minimization Criteria>
CONJUG> Minimization exiting with gradient tolerance ( 0.0100000) satisfied.

> <CHARMm Energy>
111.17665

> <Potential Energy>
111.17665

> <RMS Gradient>
0.00996

> <Bond Energy>
8.90452

> <Angle Energy>
17.1423

> <STRBend>
0.86781

> <Dihedral Energy>
4.47478

> <OOPLane>
0.07374

> <Van der Waals Energy>
82.27792

> <Electrostatic Energy>
-2.56442

> <Hydrogen Bond Energy>
0

> <Solvation Free Energy>
0

> <HasGasteigerCharges>
true

> <REMARK99>
REMARK  99  MacroMolecule created from Mol2 file
REMARK  99  CHEMBL247925
REMARK  99  PROTEIN
REMARK  99  GASTEIGER
REMARK  99
REMARK  99

$$$$
CHEMBL116671
  SciTegic05292516403D

 51 54  0  0  0  0            999 V2000
   15.0520  -13.2949   -1.3480 C   0  0
   14.8794  -14.4202   -0.5377 C   0  0
   15.9228  -14.8585    0.2779 C   0  0
   16.2489  -12.5738   -1.3039 C   0  0
   17.2872  -12.9957   -0.4715 C   0  0
   17.1120  -14.1378    0.3065 C   0  0
   18.1255  -14.5801    1.1798 O   0  0
   19.4250  -14.0772    1.0987 C   0  0
   19.7017  -13.2118   -0.0994 C   0  0  1  0  0  0
   18.5663  -12.2332   -0.3503 C   0  0
   20.9738  -12.4329    0.0843 C   0  0
   22.0295  -13.1192   -0.4295 O   0  0
   21.0352  -11.3295    0.6110 O   0  0
   23.2954  -12.4794   -0.2396 C   0  0
   20.2937  -14.4075    1.9049 O   0  0
   13.7382  -15.1724   -0.5020 O   0  0
   12.5147  -14.4321   -0.5925 C   0  0
   11.4909  -15.1429    0.2820 C   0  0
   10.2104  -14.4011    0.3945 C   0  0
    9.9425  -13.2112    1.0366 C   0  0
    8.6111  -12.9486    0.8924 O   0  0
    8.1198  -14.0148    0.1771 C   0  0
    9.0501  -14.8923   -0.1606 N   0  0
   10.7426  -12.2340    1.7963 C   0  0
    6.6864  -14.0382   -0.0896 C   0  0
    5.8332  -13.0095    0.3356 C   0  0
    4.4605  -13.0714    0.0807 C   0  0
    3.9256  -14.1612   -0.6030 C   0  0
    4.7588  -15.1902   -1.0344 C   0  0
    6.1309  -15.1274   -0.7796 C   0  0
   14.2682  -12.9656   -2.0237 H   0  0
   15.7948  -15.7408    0.8983 H   0  0
   16.3595  -11.6864   -1.9233 H   0  0
   19.8176  -13.8729   -0.9691 H   0  0
   18.7619  -11.6609   -1.2654 H   0  0
   18.4598  -11.5142    0.4723 H   0  0
   24.0702  -13.1349   -0.6465 H   0  0
   23.4923  -12.3284    0.8263 H   0  0
   23.3245  -11.5279   -0.7794 H   0  0
   12.6413  -13.3998   -0.2414 H   0  0
   12.1866  -14.4110   -1.6382 H   0  0
   11.3101  -16.1495   -0.1157 H   0  0
   11.9080  -15.2982    1.2855 H   0  0
   10.1565  -11.7989    2.6116 H   0  0
   11.0739  -11.4235    1.1403 H   0  0
   11.6279  -12.7060    2.2332 H   0  0
    6.2294  -12.1511    0.8739 H   0  0
    3.8112  -12.2685    0.4191 H   0  0
    2.8584  -14.2102   -0.7986 H   0  0
    4.3436  -16.0422   -1.5667 H   0  0
    6.7743  -15.9391   -1.1172 H   0  0
  1  2  2  0
  1 31  1  0
  2  3  1  0
  2 16  1  0
  3  6  2  0
  3 32  1  0
  4  1  1  0
  4 33  1  0
  5  4  2  0
  5  6  1  0
  5 10  1  0
  6  7  1  0
  7  8  1  0
  8  9  1  0
  8 15  2  0
  9 10  1  0
  9 11  1  0
  9 34  1  0
 10 35  1  0
 10 36  1  0
 11 12  1  0
 11 13  2  0
 12 14  1  0
 14 37  1  0
 14 38  1  0
 14 39  1  0
 16 17  1  0
 17 18  1  0
 17 40  1  0
 17 41  1  0
 18 19  1  0
 18 42  1  0
 18 43  1  0
 19 20  2  0
 20 21  1  0
 20 24  1  0
 21 22  1  0
 22 23  2  0
 22 25  1  0
 23 19  1  0
 24 44  1  0
 24 45  1  0
 24 46  1  0
 25 26  2  0
 26 27  1  0
 26 47  1  0
 27 28  2  0
 27 48  1  0
 28 29  1  0
 28 49  1  0
 29 30  2  0
 29 50  1  0
 30 25  1  0
 30 51  1  0
M  END
> <Name>
CHEMBL116671

> <Clean Energy>
33.5527

> <chembl_id>
CHEMBL116671

> <chembl_pref_name>
None

> <efficacy>
0.96

> <Forcefield>
MMFF

> <ForcefieldBase>
MMFF

> <ForcefieldFFML>
<?xml version="1.0" encoding="UTF-8"?>
<!DOCTYPE ffml SYSTEM "Ffml.dtd">
<ffml version="1.0">
<forcefield name="MMFF" derivedFrom="MMFF" base="MMFF">
<atomTypes>
<atomType
name="C100"
element="C"
mass="12.011"
annotation=""/>
<atomType
name="O101"
element="O"
mass="16"
annotation=""/>
<atomType
name="N102"
element="N"
mass="14.007"
annotation=""/>
<atomType
name="H103"
element="H"
mass="1.008"
annotation=""/>
</atomTypes>
<parameters>
</parameters>
</forcefield>
</ffml>

> <Initial Potential Energy>
83.4059

> <Initial RMS Gradient>
25.8501

> <Minimization Criteria>
STEEPD> Minimization exiting with gradient tolerance ( 3.0000000) satisfied.

> <CHARMm Energy>
19.23911

> <Potential Energy>
19.23911

> <RMS Gradient>
0.05968

> <Bond Energy>
4.38212

> <Angle Energy>
16.63616

> <STRBend>
-0.59358

> <Dihedral Energy>
3.45428

> <OOPLane>
0.22232

> <Van der Waals Energy>
50.61237

> <Electrostatic Energy>
-55.47457

> <Hydrogen Bond Energy>
0

> <Solvation Free Energy>
0

> <HasGasteigerCharges>
true

> <REMARK99>
REMARK  99  MacroMolecule created from Mol2 file
REMARK  99  CHEMBL116671
REMARK  99  PROTEIN
REMARK  99  GASTEIGER
REMARK  99
REMARK  99

$$$$
CHEMBL484063
  SciTegic05292516403D

 49 51  0  0  0  0            999 V2000
    0.1107  -11.3838    0.4502 C   0  0
    0.1329  -12.6623   -0.1117 C   0  0
    1.3362  -13.2126   -0.5709 C   0  0
    2.5108  -12.4487   -0.4750 C   0  0
    2.4967  -11.1771    0.1082 C   0  0
    1.2888  -10.6445    0.5663 C   0  0
    3.7440  -10.3955    0.2635 C   0  0
    5.0783  -10.9653   -0.0808 C   0  0
    3.7792   -9.1722    0.6907 N   0  0
    5.1431   -8.7841    0.7090 O   0  0
    5.9247   -9.9898    0.7047 C   0  0  2  0  0  0
    1.3772  -14.6052   -1.1691 C   0  0
    2.2673  -15.5701   -0.3589 C   0  0  1  0  0  0
    1.7737  -17.0026   -0.6176 C   0  0
    3.6253  -15.3362   -0.7431 O   0  0
    4.5745  -16.0071    0.0831 C   0  0
    5.9641  -15.5812   -0.3513 C   0  0
    0.6420  -17.3128    0.0623 O   0  0
    2.3255  -17.8188   -1.3409 O   0  0
    7.2953   -9.7199    0.0879 C   0  0
    8.1594  -10.9551    0.0024 C   0  0
    8.6264  -11.5835    1.1657 C   0  0
    9.4059  -12.7382    1.0823 C   0  0
    9.7293  -13.2734   -0.1627 C   0  0
    9.2807  -12.6514   -1.3259 C   0  0
    8.4978  -11.4987   -1.2445 C   0  0
   -0.8279  -10.9587    0.7993 H   0  0
   -0.8021  -13.2135   -0.1943 H   0  0
    3.4367  -12.8635   -0.8662 H   0  0
    1.2567   -9.6527    1.0135 H   0  0
    5.2210  -11.9940    0.2549 H   0  0
    5.2252  -10.8846   -1.1626 H   0  0
    6.0244  -10.3170    1.7478 H   0  0
    0.3517  -14.9891   -1.2362 H   0  0
    1.7433  -14.5203   -2.2008 H   0  0
    2.1719  -15.3741    0.7175 H   0  0
    4.4162  -15.7317    1.1315 H   0  0
    4.4724  -17.0912   -0.0230 H   0  0
    6.7298  -16.0760    0.2526 H   0  0
    6.0833  -14.4969   -0.2540 H   0  0
    6.1322  -15.8265   -1.4052 H   0  0
    0.2661  -16.6084    0.6244 H   0  0
    7.1730   -9.2658   -0.9045 H   0  0
    7.8197   -8.9564    0.6779 H   0  0
    8.3892  -11.1763    2.1461 H   0  0
    9.7731  -13.2160    1.9876 H   0  0
   10.3456  -14.1667   -0.2279 H   0  0
    9.5526  -13.0594   -2.2967 H   0  0
    8.1567  -11.0271   -2.1639 H   0  0
  1  2  2  0
  1 27  1  0
  2  3  1  0
  2 28  1  0
  3  4  2  0
  3 12  1  0
  4  5  1  0
  4 29  1  0
  5  6  2  0
  5  7  1  0
  6  1  1  0
  6 30  1  0
  7  8  1  0
  7  9  2  0
  8 11  1  0
  8 31  1  0
  8 32  1  0
  9 10  1  0
 10 11  1  0
 11 20  1  0
 11 33  1  0
 12 13  1  0
 12 34  1  0
 12 35  1  0
 13 14  1  0
 13 15  1  0
 13 36  1  0
 14 18  1  0
 14 19  2  0
 15 16  1  0
 16 17  1  0
 16 37  1  0
 16 38  1  0
 17 39  1  0
 17 40  1  0
 17 41  1  0
 18 42  1  0
 20 21  1  0
 20 43  1  0
 20 44  1  0
 21 22  2  0
 22 23  1  0
 22 45  1  0
 23 24  2  0
 23 46  1  0
 24 25  1  0
 24 47  1  0
 25 26  2  0
 25 48  1  0
 26 21  1  0
 26 49  1  0
M  END
> <Name>
CHEMBL484063

> <Clean Energy>
47.479

> <chembl_id>
CHEMBL484063

> <chembl_pref_name>
None

> <efficacy>
1.73

> <Forcefield>
MMFF

> <ForcefieldBase>
MMFF

> <ForcefieldFFML>
<?xml version="1.0" encoding="UTF-8"?>
<!DOCTYPE ffml SYSTEM "Ffml.dtd">
<ffml version="1.0">
<forcefield name="MMFF" derivedFrom="MMFF" base="MMFF">
<atomTypes>
<atomType
name="C100"
element="C"
mass="12.011"
annotation=""/>
<atomType
name="N101"
element="N"
mass="14.007"
annotation=""/>
<atomType
name="O102"
element="O"
mass="16"
annotation=""/>
<atomType
name="H103"
element="H"
mass="1.008"
annotation=""/>
</atomTypes>
<parameters>
</parameters>
</forcefield>
</ffml>

> <Initial Potential Energy>
264.61362

> <Initial RMS Gradient>
66.30756

> <Minimization Criteria>
STEEPD> Minimization exiting with gradient tolerance ( 3.0000000) satisfied.

> <CHARMm Energy>
93.40843

> <Potential Energy>
93.40843

> <RMS Gradient>
0.14742

> <Bond Energy>
4.90833

> <Angle Energy>
10.75779

> <STRBend>
0.74472

> <Dihedral Energy>
1.85413

> <OOPLane>
0.01306

> <Van der Waals Energy>
43.36317

> <Electrostatic Energy>
31.76723

> <Hydrogen Bond Energy>
0

> <Solvation Free Energy>
0

> <HasGasteigerCharges>
true

> <REMARK99>
REMARK  99  MacroMolecule created from Mol2 file
REMARK  99  CHEMBL484063
REMARK  99  PROTEIN
REMARK  99  GASTEIGER
REMARK  99
REMARK  99

$$$$
CHEMBL1170264
  SciTegic05292516403D

 69 71  0  0  0  0            999 V2000
    6.1768   -7.5956    0.0018 C   0  0
    7.4384   -7.1432    0.2761 C   0  0
    7.5411   -5.7872    0.4354 C   0  0
    6.4996   -4.9384    0.3535 N   0  0
    5.3143   -5.4826    0.0753 C   0  0
    5.1066   -6.7909   -0.1098 N   0  0
    6.0525   -8.9546   -0.1920 O   0  0
    4.6972   -9.3942   -0.2945 C   0  0
    8.8027   -5.3100    0.7203 O   0  0
    8.9008   -3.8932    0.5880 C   0  0
    3.8787   -4.4432   -0.0645 S   0  0
    4.4835   -2.8553    0.6923 C   0  0  2  0  0  0
    3.3017   -2.1336    1.3559 C   0  0
    2.2029   -2.9038    1.5881 O   0  0
    3.3326   -0.9603    1.7103 O   0  0
    5.1193   -1.9865   -0.4060 C   0  0
    6.1199   -0.9690    0.1617 C   0  0
    6.6535    0.0122   -0.8858 C   0  0
    7.4042   -0.6544   -2.0275 C   0  0
   10.3646   -3.5060    0.7835 C   0  0
   10.5983   -2.0482    0.4920 C   0  0
    4.7189  -10.9149   -0.4586 C   0  0
    3.3372  -11.5141   -0.4130 C   0  0
    2.8235  -12.0093    0.7920 C   0  0
    1.5142  -12.4877    0.8586 C   0  0
    0.6915  -12.4703   -0.2774 C   0  0
    1.2184  -12.0018   -1.4902 C   0  0
    2.5290  -11.5248   -1.5563 C   0  0
   10.2492   -1.0712    1.4305 C   0  0
   10.4385    0.2821    1.1441 C   0  0
   10.9839    0.6861   -0.0840 C   0  0
   11.3214   -0.2967   -1.0246 C   0  0
   11.1327   -1.6505   -0.7388 C   0  0
   -0.7652  -12.8542   -0.1712 C   0  0
   11.1923    2.1518   -0.3724 C   0  0
   -1.2790  -13.3690   -1.3233 F   0  0
   -1.0120  -13.7851    0.7928 F   0  0
   -1.5263  -11.7654    0.1393 F   0  0
   11.9941    2.7556    0.5518 F   0  0
   11.7855    2.3969   -1.5772 F   0  0
   10.0246    2.8515   -0.3763 F   0  0
    8.2888   -7.8028    0.3529 H   0  0
    4.1465   -9.1248    0.6163 H   0  0
    4.2098   -8.9366   -1.1648 H   0  0
    8.5667   -3.5823   -0.4108 H   0  0
    8.2843   -3.4011    1.3506 H   0  0
    5.1892   -3.0902    1.4961 H   0  0
    2.2158   -3.8299    1.2462 H   0  0
    5.6582   -2.6161   -1.1236 H   0  0
    4.3393   -1.4544   -0.9657 H   0  0
    5.6530   -0.3837    0.9607 H   0  0
    6.9602   -1.5025    0.6195 H   0  0
    5.8260    0.6040   -1.2938 H   0  0
    7.3296    0.7166   -0.3865 H   0  0
    7.8767    0.1039   -2.6601 H   0  0
    6.7304   -1.2390   -2.6610 H   0  0
    8.1864   -1.3186   -1.6509 H   0  0
   10.6815   -3.7385    1.8084 H   0  0
   11.0035   -4.1284    0.1434 H   0  0
    5.2115  -11.1812   -1.4027 H   0  0
    5.3479  -11.3649    0.3207 H   0  0
    3.4295  -11.9917    1.6957 H   0  0
    1.1302  -12.8663    1.8062 H   0  0
    0.6007  -11.9947   -2.3879 H   0  0
    2.9040  -11.1265   -2.4972 H   0  0
    9.8283   -1.3534    2.3937 H   0  0
   10.1557    1.0240    1.8887 H   0  0
   11.7348   -0.0153   -1.9913 H   0  0
   11.4059   -2.3903   -1.4888 H   0  0
  1  2  2  0
  1  7  1  0
  2  3  1  0
  2 42  1  0
  3  4  2  0
  3  9  1  0
  4  5  1  0
  5  6  2  0
  5 11  1  0
  6  1  1  0
  7  8  1  0
  8 22  1  0
  8 43  1  0
  8 44  1  0
  9 10  1  0
 10 20  1  0
 10 45  1  0
 10 46  1  0
 11 12  1  0
 12 13  1  0
 12 16  1  0
 12 47  1  0
 13 14  1  0
 13 15  2  0
 14 48  1  0
 16 17  1  0
 16 49  1  0
 16 50  1  0
 17 18  1  0
 17 51  1  0
 17 52  1  0
 18 19  1  0
 18 53  1  0
 18 54  1  0
 19 55  1  0
 19 56  1  0
 19 57  1  0
 20 21  1  0
 20 58  1  0
 20 59  1  0
 21 29  2  0
 22 23  1  0
 22 60  1  0
 22 61  1  0
 23 24  2  0
 24 25  1  0
 24 62  1  0
 25 26  2  0
 25 63  1  0
 26 27  1  0
 26 34  1  0
 27 28  2  0
 27 64  1  0
 28 23  1  0
 28 65  1  0
 29 30  1  0
 29 66  1  0
 30 31  2  0
 30 67  1  0
 31 32  1  0
 31 35  1  0
 32 33  2  0
 32 68  1  0
 33 21  1  0
 33 69  1  0
 34 36  1  0
 34 37  1  0
 34 38  1  0
 35 39  1  0
 35 40  1  0
 35 41  1  0
M  END
> <Name>
CHEMBL1170264

> <Clean Energy>
37.832001

> <chembl_id>
CHEMBL1170264

> <chembl_pref_name>
None

> <efficacy>
1.06362773

> <Forcefield>
MMFF

> <ForcefieldBase>
MMFF

> <ForcefieldFFML>
<?xml version="1.0" encoding="UTF-8"?>
<!DOCTYPE ffml SYSTEM "Ffml.dtd">
<ffml version="1.0">
<forcefield name="MMFF" derivedFrom="MMFF" base="MMFF">
<atomTypes>
<atomType
name="C100"
element="C"
mass="12.011"
annotation=""/>
<atomType
name="N101"
element="N"
mass="14.007"
annotation=""/>
<atomType
name="O102"
element="O"
mass="16"
annotation=""/>
<atomType
name="S103"
element="S"
mass="32.066"
annotation=""/>
<atomType
name="F104"
element="F"
mass="18.998"
annotation=""/>
<atomType
name="H105"
element="H"
mass="1.008"
annotation=""/>
</atomTypes>
<parameters>
</parameters>
</forcefield>
</ffml>

> <Initial Potential Energy>
145.06969

> <Initial RMS Gradient>
27.84222

> <Minimization Criteria>
STEEPD> Minimization exiting with gradient tolerance ( 3.0000000) satisfied.

> <CHARMm Energy>
2.09818

> <Potential Energy>
2.09818

> <RMS Gradient>
0.01932

> <Bond Energy>
6.17191

> <Angle Energy>
12.67886

> <STRBend>
0.73301

> <Dihedral Energy>
-5.36525

> <OOPLane>
0.13106

> <Van der Waals Energy>
67.72034

> <Electrostatic Energy>
-79.97174

> <Hydrogen Bond Energy>
0

> <Solvation Free Energy>
0

> <HasGasteigerCharges>
true

> <REMARK99>
REMARK  99  MacroMolecule created from Mol2 file
REMARK  99  CHEMBL1170264
REMARK  99  PROTEIN
REMARK  99  GASTEIGER
REMARK  99
REMARK  99

$$$$
CHEMBL166637
  SciTegic05292516403D

 54 57  0  0  0  0            999 V2000
   -0.2810   -1.0136    0.2288 N   0  0
   -0.8184    0.2538    0.1098 C   0  0
   -1.2775   -1.9734    0.1838 C   0  0
   -2.1980    0.1004   -0.0296 C   0  0
   -2.4861   -1.2972    0.0139 C   0  0
    9.9742    1.0461   -0.1914 C   0  0
    9.0929   -0.1954   -0.0573 C   0  0  2  0  0  0
    9.9796    1.8268   -1.1293 O   0  0
   -1.0092    2.6166   -0.0267 N   0  0
    7.8795    0.1807    0.8080 C   0  0
    1.1327   -1.3193    0.3901 C   0  0
   -0.2302    1.5171    0.1102 C   0  0
    6.5888   -0.4821    0.3759 C   0  0
   10.8270    1.1754    0.8609 O   0  0
    4.1507   -1.6846   -0.3765 C   0  0
   -2.9933    1.2472   -0.1730 C   0  0
   -1.2230   -3.3761    0.2728 C   0  0
    9.8980   -1.1954    0.6281 O   0  0
    6.3968   -1.8569    0.5369 C   0  0
    5.5500    0.2802   -0.1773 C   0  0
   -3.6784   -2.0455   -0.0740 C   0  0
    5.1916   -2.4509    0.1546 C   0  0
    4.3378   -0.3157   -0.5493 C   0  0
    3.0308   -2.3960   -0.6968 O   0  0
    1.8033   -1.6993   -0.9289 C   0  0
   -2.3427    2.4677   -0.1625 C   0  0
   10.7495   -1.9162   -0.2738 C   0  0
   -2.4179   -4.0942    0.1829 C   0  0
   -3.6309   -3.4395    0.0103 C   0  0
   11.5727   -2.8968    0.5368 C   0  0
    8.8098   -0.5485   -1.0558 H   0  0
    8.0590   -0.0846    1.8583 H   0  0
    7.7237    1.2675    0.7957 H   0  0
    1.6284   -0.4578    0.8492 H   0  0
    1.2172   -2.1322    1.1211 H   0  0
    0.8317    1.6912    0.2190 H   0  0
   10.7968    0.3598    1.4116 H   0  0
   -4.0679    1.1862   -0.2842 H   0  0
   -0.2866   -3.9070    0.4085 H   0  0
    7.1795   -2.4791    0.9655 H   0  0
    5.6761    1.3524   -0.3239 H   0  0
   -4.6304   -1.5417   -0.2061 H   0  0
    5.0625   -3.5237    0.2826 H   0  0
    3.5751    0.3220   -0.9816 H   0  0
    1.9225   -0.8452   -1.6043 H   0  0
    1.1666   -2.4063   -1.4739 H   0  0
   -2.9015    3.3939   -0.2671 H   0  0
   10.1336   -2.4575   -1.0001 H   0  0
   11.4101   -1.2229   -0.8047 H   0  0
   -2.3992   -5.1801    0.2493 H   0  0
   -4.5498   -4.0145   -0.0584 H   0  0
   12.2370   -3.4767   -0.1099 H   0  0
   10.9218   -3.5860    1.0847 H   0  0
   12.1767   -2.3685    1.2819 H   0  0
  2  1  1  0
  3  1  1  0
  4  2  2  0
  4  5  1  0
  5  3  1  0
  6  7  1  0
  7 10  1  0
  7 18  1  0
  7 31  1  0
  8  6  2  0
  9 12  2  0
 10 13  1  0
 10 32  1  0
 10 33  1  0
 11  1  1  0
 11 34  1  0
 11 35  1  0
 12  2  1  0
 12 36  1  0
 13 20  2  0
 14  6  1  0
 14 37  1  0
 15 24  1  0
 16  4  1  0
 16 38  1  0
 17  3  2  0
 17 39  1  0
 19 13  1  0
 19 22  2  0
 19 40  1  0
 20 23  1  0
 20 41  1  0
 21  5  2  0
 21 29  1  0
 21 42  1  0
 22 15  1  0
 22 43  1  0
 23 15  2  0
 23 44  1  0
 24 25  1  0
 25 11  1  0
 25 45  1  0
 25 46  1  0
 26  9  1  0
 26 16  2  0
 26 47  1  0
 27 18  1  0
 27 48  1  0
 27 49  1  0
 28 17  1  0
 28 50  1  0
 29 28  2  0
 29 51  1  0
 30 27  1  0
 30 52  1  0
 30 53  1  0
 30 54  1  0
M  END
> <Name>
CHEMBL166637

> <Clean Energy>
54.144699

> <chembl_id>
CHEMBL166637

> <chembl_pref_name>
None

> <efficacy>
1.16

> <Forcefield>
MMFF

> <ForcefieldBase>
MMFF

> <ForcefieldFFML>
<?xml version="1.0" encoding="UTF-8"?>
<!DOCTYPE ffml SYSTEM "Ffml.dtd">
<ffml version="1.0">
<forcefield name="MMFF" derivedFrom="MMFF" base="MMFF">
<atomTypes>
<atomType
name="N100"
element="N"
mass="14.007"
annotation=""/>
<atomType
name="C101"
element="C"
mass="12.011"
annotation=""/>
<atomType
name="O102"
element="O"
mass="16"
annotation=""/>
<atomType
name="H103"
element="H"
mass="1.008"
annotation=""/>
</atomTypes>
<parameters>
</parameters>
</forcefield>
</ffml>

> <Initial Potential Energy>
157.32798

> <Initial RMS Gradient>
31.02497

> <Minimization Criteria>
STEEPD> Minimization exiting with gradient tolerance ( 3.0000000) satisfied.

> <CHARMm Energy>
67.29898

> <Potential Energy>
67.29898

> <RMS Gradient>
0.02159

> <Bond Energy>
5.98239

> <Angle Energy>
14.04341

> <STRBend>
0.05813

> <Dihedral Energy>
0.14457

> <OOPLane>
0.04686

> <Van der Waals Energy>
56.85954

> <Electrostatic Energy>
-9.83592

> <Hydrogen Bond Energy>
0

> <Solvation Free Energy>
0

> <HasGasteigerCharges>
true

> <REMARK99>
REMARK  99  MacroMolecule created from Mol2 file
REMARK  99  CHEMBL166637
REMARK  99  PROTEIN
REMARK  99  GASTEIGER
REMARK  99
REMARK  99

$$$$
CHEMBL3318041
  SciTegic05292516403D

 60 62  0  0  0  0            999 V2000
    7.0344  -22.7602    1.0119 C   0  0
    6.7564  -23.7748    1.8985 C   0  0
    7.5056  -24.9159    1.7560 C   0  0
    8.4723  -25.1079    0.8506 N   0  0
    8.6936  -24.0506    0.0650 C   0  0
    8.0031  -22.9018    0.0965 N   0  0
    7.2494  -26.2600    2.7935 Cl  0  0
   10.0377  -24.1177   -1.0898 S   0  0
   11.2402  -25.0931   -0.1067 C   0  0  2  0  0  0
   11.4034  -24.5011    1.2923 C   0  0
   11.3855  -25.4355    2.2797 O   0  0
   11.5721  -23.3145    1.5385 O   0  0
    6.3179  -21.5524    1.1339 N   0  0
    6.5718  -20.2635    0.6227 C   0  0
    7.7768  -19.8822    0.0231 C   0  0
    7.9703  -18.5838   -0.4754 C   0  0
    6.9675  -17.6156   -0.3626 C   0  0
    5.7686  -17.9805    0.2615 C   0  0
    5.5789  -19.2805    0.7501 C   0  0
   12.5875  -25.1065   -0.8423 C   0  0
   13.5889  -26.0838   -0.2128 C   0  0
   14.9042  -26.1080   -0.9949 C   0  0
   15.9100  -27.0731   -0.3648 C   0  0
    7.1204  -16.2368   -0.9727 C   0  0
    8.3661  -15.4484   -0.6201 C   0  0
    8.8332  -15.3664    0.7001 C   0  0
    9.9588  -14.5989    1.0150 C   0  0
   10.6198  -13.8839    0.0193 C   0  0
   10.1566  -13.9408   -1.2934 C   0  0
    9.0315  -14.7075   -1.6108 C   0  0
   17.2253  -27.0906   -1.1433 C   0  0
   18.2314  -28.0436   -0.5180 C   0  0
    6.0072  -23.6757    2.6702 H   0  0
   10.8449  -26.1124   -0.0404 H   0  0
   11.2290  -26.3560    1.9890 H   0  0
    5.3763  -21.6787    1.4832 H   0  0
    8.5976  -20.5868   -0.0779 H   0  0
    8.9163  -18.3431   -0.9569 H   0  0
    4.9612  -17.2585    0.3634 H   0  0
    4.6298  -19.5171    1.2242 H   0  0
   12.4371  -25.4001   -1.8896 H   0  0
   13.0288  -24.1010   -0.8477 H   0  0
   13.7936  -25.7958    0.8247 H   0  0
   13.1553  -27.0909   -0.1911 H   0  0
   14.7101  -26.4055   -2.0325 H   0  0
   15.3325  -25.0986   -1.0228 H   0  0
   16.1018  -26.7779    0.6740 H   0  0
   15.4839  -28.0834   -0.3400 H   0  0
    7.0634  -16.3666   -2.0618 H   0  0
    6.2614  -15.6110   -0.6963 H   0  0
    8.3201  -15.8994    1.4979 H   0  0
   10.3145  -14.5636    2.0415 H   0  0
   11.4764  -13.2552    0.2627 H   0  0
   10.6567  -13.3565   -2.0654 H   0  0
    8.6669  -14.6945   -2.6373 H   0  0
   17.0400  -27.3927   -2.1808 H   0  0
   17.6550  -26.0824   -1.1711 H   0  0
   19.1650  -28.0375   -1.0892 H   0  0
   17.8471  -29.0686   -0.5067 H   0  0
   18.4609  -27.7512    0.5117 H   0  0
  1  2  2  0
  1 13  1  0
  2  3  1  0
  2 33  1  0
  3  4  2  0
  3  7  1  0
  4  5  1  0
  5  6  2  0
  5  8  1  0
  6  1  1  0
  8  9  1  0
  9 10  1  0
  9 20  1  0
  9 34  1  0
 10 11  1  0
 10 12  2  0
 11 35  1  0
 13 14  1  0
 13 36  1  0
 14 15  2  0
 15 16  1  0
 15 37  1  0
 16 17  2  0
 16 38  1  0
 17 18  1  0
 17 24  1  0
 18 19  2  0
 18 39  1  0
 19 14  1  0
 19 40  1  0
 20 21  1  0
 20 41  1  0
 20 42  1  0
 21 22  1  0
 21 43  1  0
 21 44  1  0
 22 23  1  0
 22 45  1  0
 22 46  1  0
 23 31  1  0
 23 47  1  0
 23 48  1  0
 24 25  1  0
 24 49  1  0
 24 50  1  0
 25 26  2  0
 26 27  1  0
 26 51  1  0
 27 28  2  0
 27 52  1  0
 28 29  1  0
 28 53  1  0
 29 30  2  0
 29 54  1  0
 30 25  1  0
 30 55  1  0
 31 32  1  0
 31 56  1  0
 31 57  1  0
 32 58  1  0
 32 59  1  0
 32 60  1  0
M  END
> <Name>
CHEMBL3318041

> <Clean Energy>
12.1058

> <chembl_id>
CHEMBL3318041

> <chembl_pref_name>
None

> <efficacy>
1.500474834

> <Forcefield>
MMFF

> <ForcefieldBase>
MMFF

> <ForcefieldFFML>
<?xml version="1.0" encoding="UTF-8"?>
<!DOCTYPE ffml SYSTEM "Ffml.dtd">
<ffml version="1.0">
<forcefield name="MMFF" derivedFrom="MMFF" base="MMFF">
<atomTypes>
<atomType
name="C100"
element="C"
mass="12.011"
annotation=""/>
<atomType
name="N101"
element="N"
mass="14.007"
annotation=""/>
<atomType
name="Cl102"
element="Cl"
mass="35.453"
annotation=""/>
<atomType
name="S103"
element="S"
mass="32.066"
annotation=""/>
<atomType
name="O104"
element="O"
mass="16"
annotation=""/>
<atomType
name="H105"
element="H"
mass="1.008"
annotation=""/>
</atomTypes>
<parameters>
</parameters>
</forcefield>
</ffml>

> <Initial Potential Energy>
106.74994

> <Initial RMS Gradient>
44.89632

> <Minimization Criteria>
STEEPD> Minimization exiting with gradient tolerance ( 3.0000000) satisfied.

> <CHARMm Energy>
-58.31197

> <Potential Energy>
-58.31197

> <RMS Gradient>
0.0397

> <Bond Energy>
5.43856

> <Angle Energy>
10.09417

> <STRBend>
0.39854

> <Dihedral Energy>
-0.5434

> <OOPLane>
0.39383

> <Van der Waals Energy>
58.93617

> <Electrostatic Energy>
-133.02984

> <Hydrogen Bond Energy>
0

> <Solvation Free Energy>
0

> <HasGasteigerCharges>
true

> <REMARK99>
REMARK  99  MacroMolecule created from Mol2 file
REMARK  99  CHEMBL3318041
REMARK  99  PROTEIN
REMARK  99  GASTEIGER
REMARK  99
REMARK  99

$$$$
CHEMBL315048
  SciTegic05292516403D

 56 58  0  0  0  0            999 V2000
    8.4843   -0.6485   -0.6784 C   0  0
   -0.2829   -4.6910    1.4359 C   0  0
    8.1340    0.7863   -0.6611 C   0  0
   -0.5718   -3.5463    0.4426 C   0  0  2  0  0  0
    7.5319   -1.5741   -0.9271 C   0  0
    9.8114   -1.1761   -0.2858 C   0  0
   -1.1244   -5.2352    2.1384 O   0  0
   -0.0792   -2.2131    1.0282 C   0  0
    8.4301    1.6136   -1.7539 C   0  0
    7.4589    1.3221    0.4453 C   0  0
    1.3927   -1.9899    0.7826 C   0  0
    1.0110   -5.0946    1.4541 O   0  0
    7.3288    3.4527   -0.6578 C   0  0
    4.1398   -1.7580    0.2625 C   0  0
    6.0627   -1.3651   -1.1131 C   0  0
    7.0407    2.6519    0.4398 C   0  0
    8.0376    2.9548   -1.7466 C   0  0
    6.9015    4.7211   -0.6723 F   0  0
   -1.9620   -3.3615    0.1538 O   0  0
    2.3213   -2.1895    1.8082 C   0  0
    1.8529   -1.6354   -0.4938 C   0  0
    3.2208   -1.5171   -0.7532 C   0  0
    3.6845   -2.0809    1.5430 C   0  0
    5.4943   -1.7323    0.1434 O   0  0
   10.9731   -0.8108   -0.9721 C   0  0
    9.9081   -2.0460    0.8173 C   0  0
   -2.5202   -4.4140   -0.6312 C   0  0
   -3.9807   -4.0940   -0.8826 C   0  0
   11.1463   -2.5510    1.2132 C   0  0
   12.2080   -1.3235   -0.5750 C   0  0
   12.2956   -2.1903    0.5138 C   0  0
   -0.0654   -3.7793   -0.5027 H   0  0
    7.8101   -2.6282   -0.9137 H   0  0
   -0.6297   -1.3732    0.5832 H   0  0
   -0.2977   -2.1612    2.1030 H   0  0
    8.9623    1.2181   -2.6157 H   0  0
    7.2179    0.6897    1.2983 H   0  0
    1.6235   -4.5754    0.8919 H   0  0
    5.8030   -0.3325   -1.3657 H   0  0
    5.7143   -2.0317   -1.9107 H   0  0
    6.4694    3.0506    1.2722 H   0  0
    8.2762    3.6117   -2.5804 H   0  0
    1.9968   -2.4531    2.8139 H   0  0
    1.1484   -1.4535   -1.3034 H   0  0
    3.5321   -1.2447   -1.7562 H   0  0
    4.4033   -2.2560    2.3409 H   0  0
   10.9310   -0.1373   -1.8229 H   0  0
    9.0110   -2.3298    1.3704 H   0  0
   -1.9877   -4.4833   -1.5861 H   0  0
   -2.4395   -5.3709   -0.1070 H   0  0
   -4.4520   -4.8723   -1.4893 H   0  0
   -4.0819   -3.1336   -1.3989 H   0  0
   -4.5242   -4.0059    0.0639 H   0  0
   11.2213   -3.2213    2.0657 H   0  0
   13.1062   -1.0415   -1.1166 H   0  0
   13.2630   -2.5805    0.8192 H   0  0
  2  4  1  0
  3  1  1  0
  4  8  1  0
  4 19  1  0
  4 32  1  0
  5  1  2  0
  5 33  1  0
  6  1  1  0
  7  2  2  0
  8 11  1  0
  8 34  1  0
  8 35  1  0
  9  3  1  0
  9 36  1  0
 10  3  2  0
 10 37  1  0
 11 20  1  0
 12  2  1  0
 12 38  1  0
 13 16  2  0
 14 24  1  0
 15  5  1  0
 15 39  1  0
 15 40  1  0
 16 10  1  0
 16 41  1  0
 17  9  2  0
 17 13  1  0
 17 42  1  0
 18 13  1  0
 20 23  2  0
 20 43  1  0
 21 11  2  0
 21 22  1  0
 21 44  1  0
 22 14  2  0
 22 45  1  0
 23 14  1  0
 23 46  1  0
 24 15  1  0
 25  6  1  0
 25 47  1  0
 26  6  2  0
 26 48  1  0
 27 19  1  0
 27 49  1  0
 27 50  1  0
 28 27  1  0
 28 51  1  0
 28 52  1  0
 28 53  1  0
 29 26  1  0
 29 54  1  0
 30 25  2  0
 30 31  1  0
 30 55  1  0
 31 29  2  0
 31 56  1  0
M  END
> <Name>
CHEMBL315048

> <Clean Energy>
39.1861

> <chembl_id>
CHEMBL315048

> <chembl_pref_name>
None

> <efficacy>
0.94

> <Forcefield>
MMFF

> <ForcefieldBase>
MMFF

> <ForcefieldFFML>
<?xml version="1.0" encoding="UTF-8"?>
<!DOCTYPE ffml SYSTEM "Ffml.dtd">
<ffml version="1.0">
<forcefield name="MMFF" derivedFrom="MMFF" base="MMFF">
<atomTypes>
<atomType
name="C100"
element="C"
mass="12.011"
annotation=""/>
<atomType
name="O101"
element="O"
mass="16"
annotation=""/>
<atomType
name="F102"
element="F"
mass="18.998"
annotation=""/>
<atomType
name="H103"
element="H"
mass="1.008"
annotation=""/>
</atomTypes>
<parameters>
</parameters>
</forcefield>
</ffml>

> <Initial Potential Energy>
286.69649

> <Initial RMS Gradient>
44.10467

> <Minimization Criteria>
STEEPD> Minimization exiting with gradient tolerance ( 3.0000000) satisfied.

> <CHARMm Energy>
89.02874

> <Potential Energy>
89.02874

> <RMS Gradient>
0.01414

> <Bond Energy>
6.05162

> <Angle Energy>
13.684

> <STRBend>
-0.08016

> <Dihedral Energy>
10.6489

> <OOPLane>
0.12389

> <Van der Waals Energy>
60.78009

> <Electrostatic Energy>
-2.1796

> <Hydrogen Bond Energy>
0

> <Solvation Free Energy>
0

> <HasGasteigerCharges>
true

> <REMARK99>
REMARK  99  MacroMolecule created from Mol2 file
REMARK  99  CHEMBL315048
REMARK  99  PROTEIN
REMARK  99  GASTEIGER
REMARK  99
REMARK  99

$$$$
CHEMBL4445084
  SciTegic05292516403D

 54 56  0  0  0  0            999 V2000
    5.6403   -4.8729    0.4020 O   0  0
    4.7396   -5.9448    0.7691 S   0  0
    4.8338   -6.6328    2.0373 O   0  0
   13.6615  -12.5697   -0.7421 C   0  0
   12.2260  -12.0600   -0.4672 C   0  0  1  0  0  0
   11.4966  -13.0645    0.4387 C   0  0
   11.0038  -14.2853   -0.3482 C   0  0
   10.2064  -15.2401    0.5432 C   0  0
    9.6719  -16.4278   -0.2593 C   0  0
    8.8517  -17.3722    0.6180 C   0  0
    8.3130  -18.5470   -0.1829 C   0  0
   13.9519  -13.3046   -1.6807 O   0  0
   14.6067  -12.2259    0.1693 O   0  0
   12.2619  -10.3926    0.3100 S   0  0
   10.2077   -8.1568    0.5229 S   0  0
   10.6087   -9.7813    0.1111 C   0  0
    9.6058  -10.5074   -0.3308 N   0  0
    8.4293   -9.7530   -0.3352 C   0  0
    8.5566   -8.4312    0.0948 C   0  0
    7.1508  -10.1908   -0.7442 C   0  0
    6.0529   -9.3080   -0.7179 C   0  0
    6.1858   -7.9970   -0.2622 C   0  0
    7.4561   -7.5356    0.1227 C   0  0
    5.0415   -7.1096   -0.4637 N   0  0
    3.0620   -5.4906    0.4936 C   0  0
    2.5818   -4.2384    0.8815 C   0  0
    1.2486   -3.9034    0.6196 C   0  0
    0.4084   -4.8171   -0.0139 C   0  0
    0.8768   -6.0732   -0.3846 C   0  0
    2.2036   -6.4139   -0.1283 C   0  0
   -1.2270   -4.3966   -0.3296 Cl  0  0
    3.5195   -3.0594    1.7216 Cl  0  0
   11.7303  -11.9517   -1.4384 H   0  0
   12.1592  -13.4010    1.2466 H   0  0
   10.6259  -12.6024    0.9179 H   0  0
   10.3695  -13.9503   -1.1778 H   0  0
   11.8542  -14.8209   -0.7856 H   0  0
   10.8443  -15.6022    1.3587 H   0  0
    9.3682  -14.7018    1.0023 H   0  0
    9.0488  -16.0621   -1.0844 H   0  0
   10.5102  -16.9755   -0.7067 H   0  0
    9.4713  -17.7495    1.4399 H   0  0
    8.0120  -16.8290    1.0669 H   0  0
    7.7308  -19.2116    0.4628 H   0  0
    9.1298  -19.1293   -0.6210 H   0  0
    7.6620  -18.2040   -0.9937 H   0  0
   14.2582  -11.6163    0.8510 H   0  0
    7.0231  -11.2107   -1.0961 H   0  0
    5.0861   -9.6654   -1.0663 H   0  0
    7.6198   -6.5060    0.4270 H   0  0
    5.2487   -6.5749   -1.3133 H   0  0
    0.8628   -2.9314    0.9185 H   0  0
    0.2107   -6.7869   -0.8656 H   0  0
    2.5490   -7.4075   -0.4047 H   0  0
  2  1  2  0
  2 24  1  0
  2 25  1  0
  3  2  2  0
  4  5  1  0
  4 12  2  0
  4 13  1  0
  5  6  1  0
  5 14  1  0
  5 33  1  0
  6  7  1  0
  6 34  1  0
  6 35  1  0
  7  8  1  0
  7 36  1  0
  7 37  1  0
  8  9  1  0
  8 38  1  0
  8 39  1  0
  9 10  1  0
  9 40  1  0
  9 41  1  0
 10 11  1  0
 10 42  1  0
 10 43  1  0
 11 44  1  0
 11 45  1  0
 11 46  1  0
 13 47  1  0
 14 16  1  0
 15 16  1  0
 15 19  1  0
 16 17  2  0
 17 18  1  0
 18 19  1  0
 18 20  2  0
 19 23  2  0
 20 21  1  0
 20 48  1  0
 21 22  2  0
 21 49  1  0
 22 23  1  0
 22 24  1  0
 23 50  1  0
 24 51  1  0
 25 26  1  0
 25 30  2  0
 26 27  2  0
 26 32  1  0
 27 28  1  0
 27 52  1  0
 28 29  2  0
 28 31  1  0
 29 30  1  0
 29 53  1  0
 30 54  1  0
M  END
> <Name>
CHEMBL4445084

> <Clean Energy>
46.480801

> <chembl_id>
CHEMBL4445084

> <chembl_pref_name>
None

> <efficacy>
0.959164292

> <Forcefield>
MMFF

> <ForcefieldBase>
MMFF

> <ForcefieldFFML>
<?xml version="1.0" encoding="UTF-8"?>
<!DOCTYPE ffml SYSTEM "Ffml.dtd">
<ffml version="1.0">
<forcefield name="MMFF" derivedFrom="MMFF" base="MMFF">
<atomTypes>
<atomType
name="O100"
element="O"
mass="16"
annotation=""/>
<atomType
name="S101"
element="S"
mass="32.066"
annotation=""/>
<atomType
name="C102"
element="C"
mass="12.011"
annotation=""/>
<atomType
name="N103"
element="N"
mass="14.007"
annotation=""/>
<atomType
name="Cl104"
element="Cl"
mass="35.453"
annotation=""/>
<atomType
name="H105"
element="H"
mass="1.008"
annotation=""/>
</atomTypes>
<parameters>
</parameters>
</forcefield>
</ffml>

> <Initial Potential Energy>
69.85528

> <Initial RMS Gradient>
31.19959

> <Minimization Criteria>
STEEPD> Minimization exiting with gradient tolerance ( 3.0000000) satisfied.

> <CHARMm Energy>
-41.80729

> <Potential Energy>
-41.80729

> <RMS Gradient>
0.10289

> <Bond Energy>
6.94899

> <Angle Energy>
17.94162

> <STRBend>
-0.52095

> <Dihedral Energy>
-4.65978

> <OOPLane>
0.37283

> <Van der Waals Energy>
42.22338

> <Electrostatic Energy>
-104.11338

> <Hydrogen Bond Energy>
0

> <Solvation Free Energy>
0

> <HasGasteigerCharges>
true

> <REMARK99>
REMARK  99  MacroMolecule created from Mol2 file
REMARK  99  CHEMBL4445084
REMARK  99  PROTEIN
REMARK  99  GASTEIGER
REMARK  99
REMARK  99

$$$$
CHEMBL355695
  SciTegic05292516403D

 55 58  0  0  0  0            999 V2000
    0.0804   -0.5406    0.1260 N   0  0
   -1.9967   -1.3557    0.1529 C   0  0
   -2.0569    0.0463   -0.1163 C   0  0
   -0.6524   -1.7022    0.2924 C   0  0
   -0.7488    0.5345   -0.1350 C   0  0
    9.6281    1.1105    0.2081 C   0  0
   -0.4671    1.8898   -0.3870 C   0  0
   -0.2485   -3.0255    0.5471 C   0  0
   -3.1229    0.9389   -0.3521 C   0  0
   -2.9796   -2.3602    0.2819 C   0  0
    9.3506   -0.3930    0.1694 C   0  0  2  0  0  0
    8.8000    1.9955    0.0571 O   0  0
    8.3314   -0.7590    1.2577 C   0  0
    1.5331   -0.4770    0.2042 C   0  0
   -2.5851   -3.6744    0.5402 C   0  0
   -2.8447    2.2843   -0.5996 C   0  0
    6.9536   -1.0004    0.6838 C   0  0
   -1.2407   -4.0061    0.6700 C   0  0
   -1.5377    2.7574   -0.6184 C   0  0
   10.9421    1.3807    0.4327 O   0  0
    4.4110   -1.4358   -0.4451 C   0  0
   -4.2758    3.4824   -0.9163 Br  0  0
   -3.9045   -5.0218    0.7115 Br  0  0
   10.6238   -1.0538    0.4048 O   0  0
    6.5157   -2.2988    0.4045 C   0  0
    6.1075    0.0757    0.3883 C   0  0
    5.2555   -2.5102   -0.1573 C   0  0
    4.8438   -0.1400   -0.1734 C   0  0
    3.2102   -1.7946   -0.9876 O   0  0
    2.1959   -0.7967   -1.1359 C   0  0
   10.6413   -2.3793   -0.1344 C   0  0
   11.9850   -3.0024    0.1873 C   0  0
    0.5509    2.2680   -0.4020 H   0  0
    0.8010   -3.2905    0.6449 H   0  0
   -4.1445    0.5739   -0.3411 H   0  0
   -4.0297   -2.1067    0.1768 H   0  0
    9.0156   -0.6266   -0.8490 H   0  0
    8.6495   -1.6538    1.8072 H   0  0
    8.2596    0.0279    2.0203 H   0  0
    1.8084    0.5283    0.5399 H   0  0
    1.8489   -1.1633    0.9981 H   0  0
   -0.9528   -5.0362    0.8683 H   0  0
   -1.3514    3.8116   -0.8138 H   0  0
   11.4362    0.5295    0.5215 H   0  0
    7.1462   -3.1581    0.6201 H   0  0
    6.4289    1.0986    0.5855 H   0  0
    4.9250   -3.5241   -0.3708 H   0  0
    4.2382    0.7321   -0.3928 H   0  0
    2.5806    0.1011   -1.6333 H   0  0
    1.4674   -1.2228   -1.8362 H   0  0
    9.8394   -2.9802    0.3055 H   0  0
   10.5042   -2.3348   -1.2202 H   0  0
   12.0502   -4.0179   -0.2131 H   0  0
   12.1435   -3.0382    1.2702 H   0  0
   12.7989   -2.4031   -0.2341 H   0  0
  2  4  1  0
  3  2  1  0
  3  5  2  0
  4  1  1  0
  5  1  1  0
  6 11  1  0
  7  5  1  0
  7 33  1  0
  8  4  2  0
  8 34  1  0
  9  3  1  0
  9 35  1  0
 10  2  2  0
 10 15  1  0
 10 36  1  0
 11 13  1  0
 11 24  1  0
 11 37  1  0
 12  6  2  0
 13 17  1  0
 13 38  1  0
 13 39  1  0
 14  1  1  0
 14 40  1  0
 14 41  1  0
 15 18  2  0
 16  9  2  0
 16 19  1  0
 17 26  2  0
 18  8  1  0
 18 42  1  0
 19  7  2  0
 19 43  1  0
 20  6  1  0
 20 44  1  0
 21 29  1  0
 22 16  1  0
 23 15  1  0
 25 17  1  0
 25 27  2  0
 25 45  1  0
 26 28  1  0
 26 46  1  0
 27 21  1  0
 27 47  1  0
 28 21  2  0
 28 48  1  0
 29 30  1  0
 30 14  1  0
 30 49  1  0
 30 50  1  0
 31 24  1  0
 31 51  1  0
 31 52  1  0
 32 31  1  0
 32 53  1  0
 32 54  1  0
 32 55  1  0
M  END
> <Name>
CHEMBL355695

> <Clean Energy>
53.368999

> <chembl_id>
CHEMBL355695

> <chembl_pref_name>
None

> <efficacy>
1.183

> <Forcefield>
MMFF

> <ForcefieldBase>
MMFF

> <ForcefieldFFML>
<?xml version="1.0" encoding="UTF-8"?>
<!DOCTYPE ffml SYSTEM "Ffml.dtd">
<ffml version="1.0">
<forcefield name="MMFF" derivedFrom="MMFF" base="MMFF">
<atomTypes>
<atomType
name="N100"
element="N"
mass="14.007"
annotation=""/>
<atomType
name="C101"
element="C"
mass="12.011"
annotation=""/>
<atomType
name="O102"
element="O"
mass="16"
annotation=""/>
<atomType
name="Br103"
element="Br"
mass="79.904"
annotation=""/>
<atomType
name="H104"
element="H"
mass="1.008"
annotation=""/>
</atomTypes>
<parameters>
</parameters>
</forcefield>
</ffml>

> <Initial Potential Energy>
155.68202

> <Initial RMS Gradient>
29.07476

> <Minimization Criteria>
CONJUG> Minimization exiting with gradient tolerance ( 0.0100000) satisfied.

> <CHARMm Energy>
66.51659

> <Potential Energy>
66.51659

> <RMS Gradient>
0.00943

> <Bond Energy>
6.60399

> <Angle Energy>
13.43124

> <STRBend>
-0.47767

> <Dihedral Energy>
0.06129

> <OOPLane>
0.00733

> <Van der Waals Energy>
60.94484

> <Electrostatic Energy>
-14.05443

> <Hydrogen Bond Energy>
0

> <Solvation Free Energy>
0

> <HasGasteigerCharges>
true

> <REMARK99>
REMARK  99  MacroMolecule created from Mol2 file
REMARK  99  CHEMBL355695
REMARK  99  PROTEIN
REMARK  99  GASTEIGER
REMARK  99
REMARK  99

$$$$
CHEMBL220708
  SciTegic05292516403D

 53 56  0  0  0  0            999 V2000
    9.7366   -4.7403    0.6461 C   0  0
   10.6406   -3.0478    1.5826 C   0  0
    9.8121   -3.2212    0.2508 C   0  0
   11.0069   -4.5386    1.4891 C   0  0
    6.3772   -4.1447   -2.4313 C   0  0
    5.1255   -3.9712   -1.8619 C   0  0
    4.9262   -3.3819   -0.6665 N   0  0
    6.0317   -2.9485   -0.0228 C   0  0
    7.3435   -3.0755   -0.4954 C   0  0
    7.5003   -3.6779   -1.7441 C   0  0
    4.0440   -4.4615   -2.5676 O   0  0
    2.7735   -4.0726   -2.0299 C   0  0
    2.3220   -5.0177   -0.9166 C   0  0
    1.1646   -4.4733   -0.1648 C   0  0
    1.1490   -3.6729    0.9566 C   0  0
   -0.1543   -3.4169    1.2727 O   0  0
   -0.8797   -4.0896    0.3181 C   0  0
   -0.1271   -4.7250   -0.5639 N   0  0
   -2.3327   -3.9851    0.3874 C   0  0
   -2.9799   -3.2529    1.3948 C   0  0
   -4.3721   -3.1573    1.4208 C   0  0
   -5.1284   -3.7933    0.4397 C   0  0
   -4.5048   -4.5301   -0.5629 C   0  0
   -3.1144   -4.6254   -0.5874 C   0  0
    2.1854   -3.0676    1.8093 C   0  0
    8.4601   -2.4884    0.3327 C   0  0
   10.6839   -2.8842   -1.0405 C   0  0
   10.8757   -1.5496   -1.2634 O   0  0
   11.2580   -3.6902   -1.7687 O   0  0
    8.8601   -5.0151    1.2458 H   0  0
    9.8336   -5.4595   -0.1723 H   0  0
   11.4901   -2.3598    1.5360 H   0  0
   10.0513   -2.8039    2.4746 H   0  0
   11.9366   -4.7321    0.9419 H   0  0
   11.0374   -5.0804    2.4378 H   0  0
    6.4755   -4.6287   -3.3969 H   0  0
    5.8227   -2.4689    0.9311 H   0  0
    8.4741   -3.8052   -2.2095 H   0  0
    2.7735   -3.0172   -1.7242 H   0  0
    2.0542   -4.1318   -2.8566 H   0  0
    2.0586   -5.9877   -1.3567 H   0  0
    3.1411   -5.2358   -0.2221 H   0  0
   -2.4051   -2.7470    2.1671 H   0  0
   -4.8682   -2.5872    2.2028 H   0  0
   -6.2099   -3.7145    0.4560 H   0  0
   -5.1008   -5.0280   -1.3240 H   0  0
   -2.6354   -5.2014   -1.3775 H   0  0
    1.7722   -2.7533    2.7726 H   0  0
    2.6153   -2.1890    1.3190 H   0  0
    2.9917   -3.7809    2.0055 H   0  0
    8.5592   -1.4295    0.0726 H   0  0
    8.1238   -2.5018    1.3789 H   0  0
   10.3336   -0.9851   -0.6823 H   0  0
  1 30  1  0
  1 31  1  0
  2  3  1  0
  2  4  1  0
  2 32  1  0
  2 33  1  0
  3  1  1  0
  3 27  1  0
  4  1  1  0
  4 34  1  0
  4 35  1  0
  5  6  2  0
  5 36  1  0
  6  7  1  0
  6 11  1  0
  7  8  2  0
  8  9  1  0
  8 37  1  0
  9 10  2  0
  9 26  1  0
 10  5  1  0
 10 38  1  0
 11 12  1  0
 12 13  1  0
 12 39  1  0
 12 40  1  0
 13 14  1  0
 13 41  1  0
 13 42  1  0
 14 15  2  0
 15 16  1  0
 15 25  1  0
 16 17  1  0
 17 18  2  0
 17 19  1  0
 18 14  1  0
 19 20  2  0
 20 21  1  0
 20 43  1  0
 21 22  2  0
 21 44  1  0
 22 23  1  0
 22 45  1  0
 23 24  2  0
 23 46  1  0
 24 19  1  0
 24 47  1  0
 25 48  1  0
 25 49  1  0
 25 50  1  0
 26  3  1  0
 26 51  1  0
 26 52  1  0
 27 28  1  0
 27 29  2  0
 28 53  1  0
M  END
> <Name>
CHEMBL220708

> <Clean Energy>
49.7747

> <chembl_id>
CHEMBL220708

> <chembl_pref_name>
None

> <efficacy>
1.010869565

> <Forcefield>
MMFF

> <ForcefieldBase>
MMFF

> <ForcefieldFFML>
<?xml version="1.0" encoding="UTF-8"?>
<!DOCTYPE ffml SYSTEM "Ffml.dtd">
<ffml version="1.0">
<forcefield name="MMFF" derivedFrom="MMFF" base="MMFF">
<atomTypes>
<atomType
name="C100"
element="C"
mass="12.011"
annotation=""/>
<atomType
name="N101"
element="N"
mass="14.007"
annotation=""/>
<atomType
name="O102"
element="O"
mass="16"
annotation=""/>
<atomType
name="H103"
element="H"
mass="1.008"
annotation=""/>
</atomTypes>
<parameters>
</parameters>
</forcefield>
</ffml>

> <Initial Potential Energy>
112.42586

> <Initial RMS Gradient>
27.3487

> <Minimization Criteria>
STEEPD> Minimization exiting with gradient tolerance ( 3.0000000) satisfied.

> <CHARMm Energy>
29.1592

> <Potential Energy>
29.1592

> <RMS Gradient>
0.03373

> <Bond Energy>
5.64952

> <Angle Energy>
11.50506

> <STRBend>
-0.47206

> <Dihedral Energy>
6.58372

> <OOPLane>
0.24589

> <Van der Waals Energy>
46.53265

> <Electrostatic Energy>
-40.88558

> <Hydrogen Bond Energy>
0

> <Solvation Free Energy>
0

> <HasGasteigerCharges>
true

> <REMARK99>
REMARK  99  MacroMolecule created from Mol2 file
REMARK  99  CHEMBL220708
REMARK  99  PROTEIN
REMARK  99  GASTEIGER
REMARK  99
REMARK  99

$$$$
CHEMBL198163
  SciTegic05292516403D

 54 55  0  0  0  0            999 V2000
    2.9767   -0.2616    0.0129 C   0  0
    1.7855    0.2447    0.5728 C   0  0
    2.9327   -1.5396   -0.5581 C   0  0
    5.6349    2.0898   -1.4269 C   0  0
    6.6667    2.7051   -1.4587 C   0  0
    1.7391   -2.2683   -0.5960 C   0  0
    0.5850   -0.4828    0.5624 C   0  0
   10.6425    4.4732    1.1543 C   0  0
    0.5591   -1.7583   -0.0362 C   0  0
   11.6425    5.2500    1.1156 O   0  5
    4.2246    0.6065   -0.0117 C   0  0  1  0  0  0
   10.1914    3.7946    2.1176 O   0  0
    3.9933   -2.1282   -1.1940 O   0  0
    4.3568    1.3568   -1.3482 C   0  0
    4.1704    1.5419    1.0778 O   0  0
    7.9217    3.4779   -1.4954 C   0  0
    9.8839    4.3548   -0.1726 C   0  0
   -0.5897    0.0409    1.1271 C   0  0
   -0.6468   -2.4777   -0.0617 C   0  0
    5.0106   -2.5641   -0.2783 C   0  0
    8.6040    3.5204   -0.1282 C   0  0
    5.2924   -4.0401   -0.5483 C   0  0
    6.6890   -6.0477    0.0759 C   0  0
    6.3980   -4.5744    0.3592 C   0  0
    7.7870   -6.5798    0.9832 C   0  0
   -1.8071   -1.9407    0.5004 C   0  0
   -1.7791   -0.6838    1.0970 C   0  0
    1.8083    1.2400    1.0191 H   0  0
    1.7486   -3.2430   -1.0737 H   0  0
    5.1096   -0.0053    0.1790 H   0  0
    3.5341    2.0744   -1.4567 H   0  0
    4.2914    0.6582   -2.1904 H   0  0
    5.0182    2.0253    1.0720 H   0  0
    8.6004    3.0345   -2.2336 H   0  0
    7.7058    4.4984   -1.8342 H   0  0
    9.6428    5.3713   -0.5076 H   0  0
   10.5750    3.9249   -0.9083 H   0  0
   -0.5693    1.0229    1.5964 H   0  0
   -0.6946   -3.4631   -0.5205 H   0  0
    5.9149   -1.9781   -0.4760 H   0  0
    4.7253   -2.4238    0.7726 H   0  0
    8.8364    2.4995    0.2009 H   0  0
    7.9152    3.9373    0.6180 H   0  0
    4.3711   -4.6180   -0.4050 H   0  0
    5.5683   -4.1701   -1.6023 H   0  0
    5.7797   -6.6419    0.2229 H   0  0
    6.9933   -6.1733   -0.9698 H   0  0
    6.1012   -4.4536    1.4080 H   0  0
    7.3112   -3.9850    0.2121 H   0  0
    7.9825   -7.6340    0.7631 H   0  0
    7.4975   -6.5002    2.0360 H   0  0
    8.7191   -6.0232    0.8405 H   0  0
   -2.7339   -2.5060    0.4724 H   0  0
   -2.6815   -0.2670    1.5369 H   0  0
  2  1  2  0
  2 28  1  0
  3  1  1  0
  4 14  1  0
  5  4  3  0
  6  3  2  0
  6 29  1  0
  7  2  1  0
  8 17  1  0
  9  6  1  0
  9  7  1  0
 10  8  1  0
 11  1  1  0
 11 30  1  0
 12  8  2  0
 13  3  1  0
 14 11  1  0
 14 31  1  0
 14 32  1  0
 15 11  1  0
 15 33  1  0
 16  5  1  0
 16 34  1  0
 16 35  1  0
 17 21  1  0
 17 36  1  0
 17 37  1  0
 18  7  2  0
 18 38  1  0
 19  9  2  0
 19 39  1  0
 20 13  1  0
 20 40  1  0
 20 41  1  0
 21 16  1  0
 21 42  1  0
 21 43  1  0
 22 20  1  0
 22 44  1  0
 22 45  1  0
 23 24  1  0
 23 46  1  0
 23 47  1  0
 24 22  1  0
 24 48  1  0
 24 49  1  0
 25 23  1  0
 25 50  1  0
 25 51  1  0
 25 52  1  0
 26 19  1  0
 26 27  2  0
 26 53  1  0
 27 18  1  0
 27 54  1  0
M  CHG  1  10  -1
M  END
> <Name>
CHEMBL198163

> <Clean Energy>
124.164001

> <chembl_id>
CHEMBL198163

> <chembl_pref_name>
None

> <efficacy>
1

> <Forcefield>
MMFF

> <ForcefieldBase>
MMFF

> <ForcefieldFFML>
<?xml version="1.0" encoding="UTF-8"?>
<!DOCTYPE ffml SYSTEM "Ffml.dtd">
<ffml version="1.0">
<forcefield name="MMFF" derivedFrom="MMFF" base="MMFF">
<atomTypes>
<atomType
name="C100"
element="C"
mass="12.011"
annotation=""/>
<atomType
name="O101"
element="O"
mass="16"
annotation=""/>
<atomType
name="H102"
element="H"
mass="1.008"
annotation=""/>
</atomTypes>
<parameters>
</parameters>
</forcefield>
</ffml>

> <Initial Potential Energy>
302.85373

> <Initial RMS Gradient>
35.53002

> <Minimization Criteria>
STEEPD> Minimization exiting with gradient tolerance ( 3.0000000) satisfied.

> <CHARMm Energy>
50.46201

> <Potential Energy>
50.46201

> <RMS Gradient>
0.12791

> <Bond Energy>
5.26547

> <Angle Energy>
7.90292

> <STRBend>
-0.04656

> <Dihedral Energy>
-2.26818

> <OOPLane>
0.06778

> <Van der Waals Energy>
46.34546

> <Electrostatic Energy>
-6.80489

> <Hydrogen Bond Energy>
0

> <Solvation Free Energy>
0

> <HasGasteigerCharges>
true

> <REMARK99>
REMARK  99  MacroMolecule created from Mol2 file
REMARK  99  CHEMBL198163
REMARK  99  PROTEIN
REMARK  99  GASTEIGER
REMARK  99
REMARK  99

$$$$
CHEMBL1784949
  SciTegic05292516403D

 76 81  0  0  0  0            999 V2000
    5.9083   -0.3699   -0.4230 C   0  0
    5.1434   -1.6310   -0.4727 C   0  0
    7.1259   -0.4482   -0.5974 O   0  0
    4.2810   -1.9802    0.5760 C   0  0
    3.5709   -3.1801    0.5134 C   0  0
    3.7396   -4.0257   -0.5825 C   0  0
    4.6128   -3.6858   -1.6164 C   0  0
    5.3234   -2.4879   -1.5608 C   0  0
    2.8883   -5.5156   -0.6466 Cl  0  0
    1.4718    2.5264   -0.4792 C   0  0
    1.6358    1.2369   -0.9606 C   0  0
    2.8919    0.6112   -0.9312 C   0  0
    2.5865    3.2269   -0.0057 C   0  0
    3.8619    2.6150    0.0551 C   0  0
    3.9967    1.2885   -0.3697 C   0  0
    5.3301    0.9035   -0.1578 N   0  0
    6.0038    1.9890    0.4027 C   0  0
    5.1432    3.0727    0.4858 C   0  0
    7.4246    1.8874    0.8563 C   0  0
    5.4494    4.4419    1.0182 C   0  0
    6.7337    5.0403    0.4899 C   0  0
    7.0156    5.2630   -0.6806 O   0  0
    7.5665    5.3358    1.5369 O   0  0
    0.2933    3.2224   -0.4418 O   0  0
   -0.9198    2.4643   -0.5621 C   0  0
   -2.0851    3.3975   -0.2295 C   0  0
   -3.4123    2.7527   -0.3694 C   0  0
   -4.5957    3.2682   -0.8558 C   0  0
   -5.5426    2.2877   -0.7784 O   0  0
   -4.8851    1.2200   -0.2341 C   0  0
   -3.6147    1.4520    0.0324 N   0  0
   -5.0306    4.5607   -1.4107 C   0  0
   -5.6406   -0.0093   -0.0555 C   0  0
   -7.0221   -0.0632   -0.2792 C   0  0
   -7.7204   -1.2588   -0.1035 C   0  0
   -7.0546   -2.4250    0.2993 C   0  0
   -5.6719   -2.3658    0.5264 C   0  0
   -4.9692   -1.1734    0.3484 C   0  0
   -7.7840   -3.6821    0.4817 C   0  0
   -8.8486   -3.7658    1.3914 C   0  0
   -9.5373   -4.9634    1.5698 C   0  0
   -9.1704   -6.0908    0.8391 C   0  0
   -8.1162   -6.0268   -0.0687 C   0  0
   -7.4264   -4.8299   -0.2448 C   0  0
    8.8192    5.9169    1.1545 C   0  0
    4.1500   -1.3261    1.4354 H   0  0
    2.8825   -3.4516    1.3121 H   0  0
    4.7580   -4.3551   -2.4602 H   0  0
    6.0153   -2.2265   -2.3588 H   0  0
    0.8033    0.6814   -1.3828 H   0  0
    2.9762   -0.3875   -1.3466 H   0  0
    2.4573    4.2502    0.3367 H   0  0
    7.6755    2.6821    1.5636 H   0  0
    8.1072    1.9633    0.0043 H   0  0
    7.6097    0.9490    1.3886 H   0  0
    4.6509    5.1528    0.7794 H   0  0
    5.4932    4.3830    2.1130 H   0  0
   -1.0208    2.0940   -1.5895 H   0  0
   -0.9075    1.6177    0.1359 H   0  0
   -1.9702    3.7689    0.7965 H   0  0
   -2.0248    4.2843   -0.8727 H   0  0
   -6.0578    4.7895   -1.1101 H   0  0
   -4.9887    4.5385   -2.5037 H   0  0
   -4.3891    5.3745   -1.0592 H   0  0
   -7.5677    0.8236   -0.5947 H   0  0
   -8.7910   -1.2776   -0.2947 H   0  0
   -5.1466   -3.2587    0.8583 H   0  0
   -3.8945   -1.1537    0.5286 H   0  0
   -9.1378   -2.8952    1.9765 H   0  0
  -10.3581   -5.0202    2.2801 H   0  0
   -9.7071   -7.0231    0.9783 H   0  0
   -7.8388   -6.9114   -0.6372 H   0  0
   -6.6056   -4.7867   -0.9588 H   0  0
    9.3809    5.2256    0.5187 H   0  0
    9.3973    6.1016    2.0640 H   0  0
    8.6561    6.8714    0.6449 H   0  0
  1  2  1  0
  1  3  2  0
  2  4  2  0
  4  5  1  0
  4 46  1  0
  5  6  2  0
  5 47  1  0
  6  7  1  0
  6  9  1  0
  7  8  2  0
  7 48  1  0
  8  2  1  0
  8 49  1  0
 10 11  2  0
 10 24  1  0
 11 12  1  0
 11 50  1  0
 12 15  2  0
 12 51  1  0
 13 10  1  0
 13 52  1  0
 14 13  2  0
 14 15  1  0
 15 16  1  0
 16  1  1  0
 16 17  1  0
 17 18  2  0
 17 19  1  0
 18 14  1  0
 18 20  1  0
 19 53  1  0
 19 54  1  0
 19 55  1  0
 20 21  1  0
 20 56  1  0
 20 57  1  0
 21 22  2  0
 21 23  1  0
 23 45  1  0
 24 25  1  0
 25 26  1  0
 25 58  1  0
 25 59  1  0
 26 27  1  0
 26 60  1  0
 26 61  1  0
 27 28  2  0
 28 29  1  0
 28 32  1  0
 29 30  1  0
 30 31  2  0
 30 33  1  0
 31 27  1  0
 32 62  1  0
 32 63  1  0
 32 64  1  0
 33 34  2  0
 34 35  1  0
 34 65  1  0
 35 36  2  0
 35 66  1  0
 36 37  1  0
 36 39  1  0
 37 38  2  0
 37 67  1  0
 38 33  1  0
 38 68  1  0
 39 40  2  0
 40 41  1  0
 40 69  1  0
 41 42  2  0
 41 70  1  0
 42 43  1  0
 42 71  1  0
 43 44  2  0
 43 72  1  0
 44 39  1  0
 44 73  1  0
 45 74  1  0
 45 75  1  0
 45 76  1  0
M  END
> <Name>
CHEMBL1784949

> <Clean Energy>
69.354103

> <chembl_id>
CHEMBL1784949

> <chembl_pref_name>
None

> <efficacy>
1.41

> <Forcefield>
MMFF

> <ForcefieldBase>
MMFF

> <ForcefieldFFML>
<?xml version="1.0" encoding="UTF-8"?>
<!DOCTYPE ffml SYSTEM "Ffml.dtd">
<ffml version="1.0">
<forcefield name="MMFF" derivedFrom="MMFF" base="MMFF">
<atomTypes>
<atomType
name="C100"
element="C"
mass="12.011"
annotation=""/>
<atomType
name="O101"
element="O"
mass="16"
annotation=""/>
<atomType
name="Cl102"
element="Cl"
mass="35.453"
annotation=""/>
<atomType
name="N103"
element="N"
mass="14.007"
annotation=""/>
<atomType
name="H104"
element="H"
mass="1.008"
annotation=""/>
</atomTypes>
<parameters>
</parameters>
</forcefield>
</ffml>

> <Initial Potential Energy>
792.17642

> <Initial RMS Gradient>
298.28871

> <Minimization Criteria>
STEEPD> Minimization exiting with gradient tolerance ( 3.0000000) satisfied.

> <CHARMm Energy>
161.02015

> <Potential Energy>
161.02015

> <RMS Gradient>
0.03637

> <Bond Energy>
9.98819

> <Angle Energy>
14.2774

> <STRBend>
-0.92336

> <Dihedral Energy>
16.70116

> <OOPLane>
0.09872

> <Van der Waals Energy>
81.54745

> <Electrostatic Energy>
39.33059

> <Hydrogen Bond Energy>
0

> <Solvation Free Energy>
0

> <HasGasteigerCharges>
true

> <REMARK99>
REMARK  99  MacroMolecule created from Mol2 file
REMARK  99  CHEMBL1784949
REMARK  99  PROTEIN
REMARK  99  GASTEIGER
REMARK  99
REMARK  99

$$$$
CHEMBL1935618
  SciTegic05292516403D

 72 74  0  0  0  0            999 V2000
   23.8694  -16.9075   -0.1973 N   0  0
   25.0430  -17.5966    0.1017 C   0  0
   26.3401  -16.9001   -0.0874 C   0  0
   25.0100  -18.7458    0.5378 O   0  0
   27.4732  -17.6105   -0.1235 C   0  0
   18.9120  -15.5630   -0.7870 C   0  0
   18.8930  -16.6808    0.0437 C   0  0
   20.1065  -17.3341    0.3201 C   0  0
   20.1125  -15.1148   -1.3461 C   0  0
   21.3175  -15.7713   -1.0710 C   0  0
   21.3300  -16.8857   -0.2251 C   0  0
   22.6128  -17.6565    0.0030 C   0  0
   23.8013  -15.5622   -0.8219 C   0  0  1  0  0  0
   22.5951  -15.3473   -1.7352 C   0  0
   23.9005  -14.4331    0.2167 C   0  0
   23.9646  -14.8612    1.5000 O   0  0
   24.0149  -13.2502   -0.0780 O   0  0
   17.7696  -17.2290    0.6146 O   0  0
   16.5177  -16.5598    0.3878 C   0  0
   15.4098  -17.3049    1.1399 C   0  0
   14.1141  -16.5675    1.1801 C   0  0
   13.7920  -15.4117    1.8518 C   0  0
   12.4813  -15.1380    1.6100 O   0  0
   12.0113  -16.1705    0.8138 C   0  0
   12.9859  -17.0319    0.5303 N   0  0
   14.5171  -14.4720    2.7235 C   0  0
   10.6531  -16.2201    0.3911 C   0  0
   10.1798  -17.2262   -0.3611 C   0  0
    8.7580  -17.3221   -0.8342 C   0  0
    8.0664  -18.5599   -0.2537 C   0  0
    6.6487  -18.7886   -0.8109 C   0  0
    6.0969  -20.1194   -0.2932 C   0  0
    5.6872  -17.6563   -0.4471 C   0  0
   28.6941  -17.0060   -0.2922 O   0  0
   29.7772  -17.8466    0.1160 C   0  0
   31.0674  -17.0626   -0.0313 C   0  0
   26.3914  -15.8235   -0.1579 H   0  0
   27.5038  -18.6914   -0.0445 H   0  0
   18.0083  -15.0208   -1.0411 H   0  0
   20.0916  -18.2189    0.9549 H   0  0
   20.0905  -14.2534   -2.0121 H   0  0
   22.6238  -18.0475    1.0281 H   0  0
   22.6313  -18.5137   -0.6818 H   0  0
   24.6965  -15.4494   -1.4445 H   0  0
   22.7122  -15.9499   -2.6450 H   0  0
   22.5333  -14.2973   -2.0457 H   0  0
   23.6786  -15.7986    1.5543 H   0  0
   16.5893  -15.5291    0.7557 H   0  0
   16.2843  -16.5498   -0.6840 H   0  0
   15.2664  -18.2916    0.6823 H   0  0
   15.7390  -17.5060    2.1675 H   0  0
   13.8727  -14.1128    3.5319 H   0  0
   14.8608  -13.6078    2.1472 H   0  0
   15.3902  -14.9505    3.1775 H   0  0
   10.0122  -15.4058    0.7080 H   0  0
   10.8498  -18.0292   -0.6686 H   0  0
    8.2074  -16.4159   -0.5584 H   0  0
    8.7602  -17.3757   -1.9293 H   0  0
    8.6775  -19.4456   -0.4744 H   0  0
    8.0244  -18.4767    0.8405 H   0  0
    6.7065  -18.8521   -1.9049 H   0  0
    5.1039  -20.3181   -0.7102 H   0  0
    6.0118  -20.1167    0.7988 H   0  0
    6.7500  -20.9502   -0.5807 H   0  0
    4.6730  -17.8816   -0.7944 H   0  0
    5.9859  -16.7135   -0.9149 H   0  0
    5.6464  -17.5027    0.6366 H   0  0
   29.6467  -18.1471    1.1627 H   0  0
   29.8159  -18.7405   -0.5178 H   0  0
   31.9277  -17.6670    0.2694 H   0  0
   31.0399  -16.1563    0.5826 H   0  0
   31.2065  -16.7406   -1.0687 H   0  0
  1  2  1  0
  1 13  1  0
  2  3  1  0
  2  4  2  0
  3  5  2  0
  3 37  1  0
  5 34  1  0
  5 38  1  0
  6  7  2  0
  6 39  1  0
  7  8  1  0
  7 18  1  0
  8 11  2  0
  8 40  1  0
  9  6  1  0
  9 41  1  0
 10  9  2  0
 10 11  1  0
 10 14  1  0
 11 12  1  0
 12  1  1  0
 12 42  1  0
 12 43  1  0
 13 14  1  0
 13 15  1  0
 13 44  1  0
 14 45  1  0
 14 46  1  0
 15 16  1  0
 15 17  2  0
 16 47  1  0
 18 19  1  0
 19 20  1  0
 19 48  1  0
 19 49  1  0
 20 21  1  0
 20 50  1  0
 20 51  1  0
 21 22  2  0
 22 23  1  0
 22 26  1  0
 23 24  1  0
 24 25  2  0
 24 27  1  0
 25 21  1  0
 26 52  1  0
 26 53  1  0
 26 54  1  0
 27 28  2  0
 27 55  1  0
 28 29  1  0
 28 56  1  0
 29 30  1  0
 29 57  1  0
 29 58  1  0
 30 31  1  0
 30 59  1  0
 30 60  1  0
 31 32  1  0
 31 33  1  0
 31 61  1  0
 32 62  1  0
 32 63  1  0
 32 64  1  0
 33 65  1  0
 33 66  1  0
 33 67  1  0
 34 35  1  0
 35 36  1  0
 35 68  1  0
 35 69  1  0
 36 70  1  0
 36 71  1  0
 36 72  1  0
M  END
> <Name>
CHEMBL1935618

> <Clean Energy>
59.348999

> <chembl_id>
CHEMBL1935618

> <chembl_pref_name>
None

> <efficacy>
1.063157895

> <Forcefield>
MMFF

> <ForcefieldBase>
MMFF

> <ForcefieldFFML>
<?xml version="1.0" encoding="UTF-8"?>
<!DOCTYPE ffml SYSTEM "Ffml.dtd">
<ffml version="1.0">
<forcefield name="MMFF" derivedFrom="MMFF" base="MMFF">
<atomTypes>
<atomType
name="N100"
element="N"
mass="14.007"
annotation=""/>
<atomType
name="C101"
element="C"
mass="12.011"
annotation=""/>
<atomType
name="O102"
element="O"
mass="16"
annotation=""/>
<atomType
name="H103"
element="H"
mass="1.008"
annotation=""/>
</atomTypes>
<parameters>
</parameters>
</forcefield>
</ffml>

> <Initial Potential Energy>
122.57089

> <Initial RMS Gradient>
20.7642

> <Minimization Criteria>
CONJUG> Minimization exiting with gradient tolerance ( 0.0100000) satisfied.

> <CHARMm Energy>
31.2174

> <Potential Energy>
31.2174

> <RMS Gradient>
0.00937

> <Bond Energy>
6.81191

> <Angle Energy>
21.10068

> <STRBend>
0.61897

> <Dihedral Energy>
-8.80626

> <OOPLane>
0.3438

> <Van der Waals Energy>
54.32992

> <Electrostatic Energy>
-43.18161

> <Hydrogen Bond Energy>
0

> <Solvation Free Energy>
0

> <HasGasteigerCharges>
true

> <REMARK99>
REMARK  99  MacroMolecule created from Mol2 file
REMARK  99  CHEMBL1935618
REMARK  99  PROTEIN
REMARK  99  GASTEIGER
REMARK  99
REMARK  99

$$$$
CHEMBL374448
  SciTegic05292516403D

 57 60  0  0  0  0            999 V2000
   19.8418  -12.2962    1.3860 C   0  0
   19.0686  -11.0196    1.6243 C   0  0
   19.6036  -10.0929    0.5269 C   0  0  1  0  0  0
   20.1638  -10.9490   -0.5150 O   0  0
   19.9438  -12.3161   -0.1200 C   0  0
   14.9294   -9.8905    0.2552 C   0  0
   14.7644  -10.7074   -0.8540 C   0  0
   15.7793  -10.9850   -1.7040 N   0  0
   16.9854  -10.4307   -1.4499 C   0  0
   17.2435   -9.6063   -0.3642 C   0  0
   16.1809   -9.3289    0.4960 C   0  0
   13.5973  -11.3381   -1.1840 O   0  0
   12.3963  -10.7875   -0.6427 C   0  0
   11.2201  -11.3983   -1.3975 C   0  0
    9.9100  -10.8052   -1.0209 C   0  0
    9.4262   -9.5367   -1.2608 C   0  0
    8.1607   -9.4685   -0.7570 O   0  0
    7.9162  -10.7225   -0.2544 C   0  0
    8.9458  -11.5450   -0.3675 N   0  0
    6.5846  -10.9590    0.3034 C   0  0
    5.6280   -9.9326    0.3923 C   0  0
    4.3515  -10.1700    0.9234 C   0  0
    4.0225  -11.4612    1.3467 C   0  0
    4.9560  -12.4922    1.2669 C   0  0
    6.2306  -12.2401    0.7520 C   0  0
    9.9515   -8.3239   -1.9108 C   0  0
   18.6215   -9.0725   -0.0811 C   0  0
   20.7736   -9.2699    1.0938 C   0  0
   21.9343   -9.4869    0.4302 O   0  0
   20.6708   -8.4880    2.0280 O   0  0
    3.3354   -9.0682    0.9747 C   0  0
   20.8396  -12.2151    1.8329 H   0  0
   19.3513  -13.1839    1.7927 H   0  0
   18.0040  -11.2403    1.5046 H   0  0
   19.2077  -10.6351    2.6396 H   0  0
   19.0145  -12.6620   -0.5847 H   0  0
   20.7702  -12.9355   -0.4780 H   0  0
   14.1270   -9.6908    0.9531 H   0  0
   17.7654  -10.6896   -2.1627 H   0  0
   16.3206   -8.6968    1.3701 H   0  0
   12.3193  -11.0343    0.4232 H   0  0
   12.3900   -9.6970   -0.7641 H   0  0
   11.3747  -11.2766   -2.4774 H   0  0
   11.2049  -12.4821   -1.2280 H   0  0
    5.8820   -8.9332    0.0423 H   0  0
    3.0328  -11.6736    1.7427 H   0  0
    4.6926  -13.4927    1.6016 H   0  0
    6.9480  -13.0566    0.6903 H   0  0
    9.1550   -7.7796   -2.4272 H   0  0
   10.7197   -8.5758   -2.6480 H   0  0
   10.3969   -7.6578   -1.1660 H   0  0
   19.0329   -8.6791   -1.0212 H   0  0
   18.5178   -8.2012    0.5796 H   0  0
   21.7720  -10.1420   -0.2882 H   0  0
    2.6225   -9.2300    1.7901 H   0  0
    2.7858   -9.0217    0.0295 H   0  0
    3.8185   -8.1019    1.1531 H   0  0
  1  2  1  0
  1 32  1  0
  1 33  1  0
  2  3  1  0
  2 34  1  0
  2 35  1  0
  3  4  1  0
  3 28  1  0
  4  5  1  0
  5  1  1  0
  5 36  1  0
  5 37  1  0
  6  7  2  0
  6 38  1  0
  7  8  1  0
  7 12  1  0
  8  9  2  0
  9 10  1  0
  9 39  1  0
 10 11  2  0
 10 27  1  0
 11  6  1  0
 11 40  1  0
 12 13  1  0
 13 14  1  0
 13 41  1  0
 13 42  1  0
 14 15  1  0
 14 43  1  0
 14 44  1  0
 15 16  2  0
 16 17  1  0
 16 26  1  0
 17 18  1  0
 18 19  2  0
 18 20  1  0
 19 15  1  0
 20 21  2  0
 21 22  1  0
 21 45  1  0
 22 23  2  0
 22 31  1  0
 23 24  1  0
 23 46  1  0
 24 25  2  0
 24 47  1  0
 25 20  1  0
 25 48  1  0
 26 49  1  0
 26 50  1  0
 26 51  1  0
 27  3  1  0
 27 52  1  0
 27 53  1  0
 28 29  1  0
 28 30  2  0
 29 54  1  0
 31 55  1  0
 31 56  1  0
 31 57  1  0
M  END
> <Name>
CHEMBL374448

> <Clean Energy>
76.555901

> <chembl_id>
CHEMBL374448

> <chembl_pref_name>
None

> <efficacy>
1.413043478

> <Forcefield>
MMFF

> <ForcefieldBase>
MMFF

> <ForcefieldFFML>
<?xml version="1.0" encoding="UTF-8"?>
<!DOCTYPE ffml SYSTEM "Ffml.dtd">
<ffml version="1.0">
<forcefield name="MMFF" derivedFrom="MMFF" base="MMFF">
<atomTypes>
<atomType
name="C100"
element="C"
mass="12.011"
annotation=""/>
<atomType
name="O101"
element="O"
mass="16"
annotation=""/>
<atomType
name="N102"
element="N"
mass="14.007"
annotation=""/>
<atomType
name="H103"
element="H"
mass="1.008"
annotation=""/>
</atomTypes>
<parameters>
</parameters>
</forcefield>
</ffml>

> <Initial Potential Energy>
194.55122

> <Initial RMS Gradient>
29.7946

> <Minimization Criteria>
STEEPD> Minimization exiting with gradient tolerance ( 3.0000000) satisfied.

> <CHARMm Energy>
72.18534

> <Potential Energy>
72.18534

> <RMS Gradient>
0.09746

> <Bond Energy>
5.14589

> <Angle Energy>
13.59385

> <STRBend>
0.73281

> <Dihedral Energy>
2.16497

> <OOPLane>
0.05649

> <Van der Waals Energy>
50.28602

> <Electrostatic Energy>
0.20531

> <Hydrogen Bond Energy>
0

> <Solvation Free Energy>
0

> <HasGasteigerCharges>
true

> <REMARK99>
REMARK  99  MacroMolecule created from Mol2 file
REMARK  99  CHEMBL374448
REMARK  99  PROTEIN
REMARK  99  GASTEIGER
REMARK  99
REMARK  99

$$$$
CHEMBL426878
  SciTegic05292516403D

 55 57  0  0  0  0            999 V2000
    6.9640  -26.5326    0.7223 C   0  0
    5.9546  -27.0738   -0.0785 C   0  0
    6.2957  -27.7835   -1.2280 C   0  0
    7.6426  -27.9451   -1.5628 C   0  0
    8.6550  -27.4028   -0.7582 C   0  0
    8.3124  -26.6922    0.3924 C   0  0
    6.5349  -25.6563    2.1423 Cl  0  0
    9.9373  -27.6463   -1.2052 O   0  0
   10.9938  -27.1243   -0.5015 C   0  0
   11.6465  -27.9147    0.4381 C   0  0
   12.7701  -27.4131    1.0978 C   0  0
   13.2547  -26.1181    0.8278 C   0  0
   12.5990  -25.3290   -0.1434 C   0  0
   11.4766  -25.8521   -0.8104 C   0  0
   13.0643  -23.9396   -0.4863 C   0  0
   14.4712  -25.6280    1.5893 C   0  0
   15.7989  -25.8623    0.8612 C   0  0
   16.8540  -25.3580    1.6912 O   0  0
   18.0972  -25.4173    1.0965 C   0  0
   18.2257  -25.9145   -0.1512 N   0  0
   19.4745  -25.9254   -0.6679 C   0  0
   20.6076  -25.4724    0.0039 C   0  0
   20.4338  -24.9735    1.2966 C   0  0
   19.1578  -24.9415    1.8506 C   0  0
   21.9737  -25.5544   -0.6253 C   0  0
   22.7343  -26.8043   -0.1638 C   0  0  2  0  0  0
   23.8657  -26.3989    0.7832 C   0  0
   25.0808  -26.8025    0.3329 O   0  0
   23.7247  -25.7807    1.8274 O   0  0
   23.3568  -27.4695   -1.2913 O   0  0
   22.4621  -28.3786   -1.9313 C   0  0
    4.9076  -26.9468    0.1882 H   0  0
    5.5184  -28.2094   -1.8587 H   0  0
    7.9180  -28.4985   -2.4582 H   0  0
    9.0706  -26.2622    1.0391 H   0  0
   11.2728  -28.9121    0.6576 H   0  0
   13.2762  -28.0408    1.8295 H   0  0
   10.9604  -25.2681   -1.5703 H   0  0
   12.4290  -23.4812   -1.2520 H   0  0
   14.0842  -23.9609   -0.8799 H   0  0
   13.0241  -23.2954    0.3974 H   0  0
   14.3612  -24.5645    1.8342 H   0  0
   14.5100  -26.1187    2.5715 H   0  0
   15.9426  -26.9365    0.6880 H   0  0
   15.7870  -25.3381   -0.1017 H   0  0
   19.5397  -26.3261   -1.6764 H   0  0
   21.2814  -24.6109    1.8770 H   0  0
   18.9910  -24.5548    2.8493 H   0  0
   21.8633  -25.5455   -1.7169 H   0  0
   22.5237  -24.6341   -0.3875 H   0  0
   22.1150  -27.5291    0.3798 H   0  0
   24.9523  -27.2576   -0.5332 H   0  0
   22.9859  -28.8309   -2.7777 H   0  0
   21.5781  -27.8572   -2.3074 H   0  0
   22.1688  -29.1733   -1.2388 H   0  0
  1  2  2  0
  1  7  1  0
  2  3  1  0
  2 32  1  0
  3  4  2  0
  3 33  1  0
  4  5  1  0
  4 34  1  0
  5  6  2  0
  5  8  1  0
  6  1  1  0
  6 35  1  0
  8  9  1  0
  9 10  2  0
 10 11  1  0
 10 36  1  0
 11 12  2  0
 11 37  1  0
 12 13  1  0
 12 16  1  0
 13 14  2  0
 13 15  1  0
 14  9  1  0
 14 38  1  0
 15 39  1  0
 15 40  1  0
 15 41  1  0
 16 17  1  0
 16 42  1  0
 16 43  1  0
 17 18  1  0
 17 44  1  0
 17 45  1  0
 18 19  1  0
 19 20  2  0
 20 21  1  0
 21 22  2  0
 21 46  1  0
 22 23  1  0
 22 25  1  0
 23 24  2  0
 23 47  1  0
 24 19  1  0
 24 48  1  0
 25 26  1  0
 25 49  1  0
 25 50  1  0
 26 27  1  0
 26 30  1  0
 26 51  1  0
 27 28  1  0
 27 29  2  0
 28 52  1  0
 30 31  1  0
 31 53  1  0
 31 54  1  0
 31 55  1  0
M  END
> <Name>
CHEMBL426878

> <Clean Energy>
26.6917

> <chembl_id>
CHEMBL426878

> <chembl_pref_name>
None

> <efficacy>
1.032608696

> <Forcefield>
MMFF

> <ForcefieldBase>
MMFF

> <ForcefieldFFML>
<?xml version="1.0" encoding="UTF-8"?>
<!DOCTYPE ffml SYSTEM "Ffml.dtd">
<ffml version="1.0">
<forcefield name="MMFF" derivedFrom="MMFF" base="MMFF">
<atomTypes>
<atomType
name="C100"
element="C"
mass="12.011"
annotation=""/>
<atomType
name="Cl101"
element="Cl"
mass="35.453"
annotation=""/>
<atomType
name="O102"
element="O"
mass="16"
annotation=""/>
<atomType
name="N103"
element="N"
mass="14.007"
annotation=""/>
<atomType
name="H104"
element="H"
mass="1.008"
annotation=""/>
</atomTypes>
<parameters>
</parameters>
</forcefield>
</ffml>

> <Initial Potential Energy>
215.50695

> <Initial RMS Gradient>
37.26583

> <Minimization Criteria>
STEEPD> Minimization exiting with gradient tolerance ( 3.0000000) satisfied.

> <CHARMm Energy>
69.37351

> <Potential Energy>
69.37351

> <RMS Gradient>
0.05566

> <Bond Energy>
5.82526

> <Angle Energy>
12.09158

> <STRBend>
1.47422

> <Dihedral Energy>
9.15667

> <OOPLane>
0.07823

> <Van der Waals Energy>
66.44487

> <Electrostatic Energy>
-25.69732

> <Hydrogen Bond Energy>
0

> <Solvation Free Energy>
0

> <HasGasteigerCharges>
true

> <REMARK99>
REMARK  99  MacroMolecule created from Mol2 file
REMARK  99  CHEMBL426878
REMARK  99  PROTEIN
REMARK  99  GASTEIGER
REMARK  99
REMARK  99

$$$$
CHEMBL222107
  SciTegic05292516403D

 58 60  0  0  0  0            999 V2000
    3.0106   -6.9044    3.5136 C   0  0
    1.9383   -6.6253    2.6839 C   0  0
    2.0385   -5.9281    1.5320 N   0  0
    3.2738   -5.4850    1.2004 C   0  0
    4.4233   -5.7312    1.9502 C   0  0
    4.2702   -6.4507    3.1396 C   0  0
    0.7182   -7.1283    3.0874 O   0  0
   -0.3648   -6.8487    2.1963 C   0  0
   -0.4083   -7.8578    1.0497 C   0  0
   -1.5428   -7.5922    0.1356 C   0  0
   -1.5505   -7.0330   -1.1226 C   0  0
   -2.8479   -6.9651   -1.5423 O   0  0
   -3.5774   -7.4870   -0.5011 C   0  0
   -2.8311   -7.8854    0.5154 N   0  0
   -5.0286   -7.4907   -0.6436 C   0  0
   -5.6641   -6.9199   -1.7569 C   0  0
   -7.0565   -6.9022   -1.8497 C   0  0
   -7.8272   -7.4580   -0.8312 C   0  0
   -7.2127   -8.0362    0.2763 C   0  0
   -5.8213   -8.0531    0.3686 C   0  0
   -0.5160   -6.5203   -2.0362 C   0  0
    5.7864   -5.2554    1.5251 C   0  0
    6.3217   -5.7775    0.1684 C   0  0  1  0  0  0
    7.8147   -5.4833    0.1685 C   0  0
    8.5531   -6.3048    0.9562 O   0  0
    8.3358   -4.5582   -0.4400 O   0  0
    5.9947   -7.2581   -0.1464 C   0  0
    6.2228   -7.6802   -1.6174 C   0  0
    5.5690   -9.0462   -1.8614 C   0  0
    7.6970   -7.7557   -2.0133 C   0  0
    2.8632   -7.4682    4.4277 H   0  0
    3.3124   -4.9172    0.2741 H   0  0
    5.1212   -6.6638    3.7821 H   0  0
   -1.2808   -6.9444    2.7929 H   0  0
   -0.3540   -5.8075    1.8469 H   0  0
    0.5343   -7.8565    0.4913 H   0  0
   -0.4974   -8.8704    1.4624 H   0  0
   -5.0769   -6.4732   -2.5564 H   0  0
   -7.5394   -6.4517   -2.7133 H   0  0
   -8.9101   -7.4379   -0.8989 H   0  0
   -7.8153   -8.4704    1.0699 H   0  0
   -5.3528   -8.5027    1.2421 H   0  0
   -0.9389   -5.8134   -2.7568 H   0  0
   -0.0581   -7.3439   -2.5922 H   0  0
    0.2711   -6.0021   -1.4795 H   0  0
    5.7685   -4.1568    1.4992 H   0  0
    6.5004   -5.4987    2.3236 H   0  0
    5.8709   -5.1687   -0.6270 H   0  0
    8.0089   -6.9732    1.4167 H   0  0
    6.5350   -7.9412    0.5180 H   0  0
    4.9327   -7.4315    0.0589 H   0  0
    5.7258   -6.9547   -2.2738 H   0  0
    5.6788   -9.3504   -2.9079 H   0  0
    4.4970   -9.0117   -1.6394 H   0  0
    6.0218   -9.8207   -1.2328 H   0  0
    7.8113   -8.2067   -3.0053 H   0  0
    8.2713   -8.3592   -1.3027 H   0  0
    8.1477   -6.7622   -2.0704 H   0  0
  1  2  2  0
  1 31  1  0
  2  3  1  0
  2  7  1  0
  3  4  2  0
  4  5  1  0
  4 32  1  0
  5  6  2  0
  5 22  1  0
  6  1  1  0
  6 33  1  0
  7  8  1  0
  8  9  1  0
  8 34  1  0
  8 35  1  0
  9 10  1  0
  9 36  1  0
  9 37  1  0
 10 11  2  0
 11 12  1  0
 11 21  1  0
 12 13  1  0
 13 14  2  0
 13 15  1  0
 14 10  1  0
 15 16  2  0
 16 17  1  0
 16 38  1  0
 17 18  2  0
 17 39  1  0
 18 19  1  0
 18 40  1  0
 19 20  2  0
 19 41  1  0
 20 15  1  0
 20 42  1  0
 21 43  1  0
 21 44  1  0
 21 45  1  0
 22 23  1  0
 22 46  1  0
 22 47  1  0
 23 24  1  0
 23 27  1  0
 23 48  1  0
 24 25  1  0
 24 26  2  0
 25 49  1  0
 27 28  1  0
 27 50  1  0
 27 51  1  0
 28 29  1  0
 28 30  1  0
 28 52  1  0
 29 53  1  0
 29 54  1  0
 29 55  1  0
 30 56  1  0
 30 57  1  0
 30 58  1  0
M  END
> <Name>
CHEMBL222107

> <Clean Energy>
42.151402

> <chembl_id>
CHEMBL222107

> <chembl_pref_name>
None

> <efficacy>
1.130434783

> <Forcefield>
MMFF

> <ForcefieldBase>
MMFF

> <ForcefieldFFML>
<?xml version="1.0" encoding="UTF-8"?>
<!DOCTYPE ffml SYSTEM "Ffml.dtd">
<ffml version="1.0">
<forcefield name="MMFF" derivedFrom="MMFF" base="MMFF">
<atomTypes>
<atomType
name="C100"
element="C"
mass="12.011"
annotation=""/>
<atomType
name="N101"
element="N"
mass="14.007"
annotation=""/>
<atomType
name="O102"
element="O"
mass="16"
annotation=""/>
<atomType
name="H103"
element="H"
mass="1.008"
annotation=""/>
</atomTypes>
<parameters>
</parameters>
</forcefield>
</ffml>

> <Initial Potential Energy>
108.88159

> <Initial RMS Gradient>
25.79364

> <Minimization Criteria>
STEEPD> Minimization exiting with gradient tolerance ( 3.0000000) satisfied.

> <CHARMm Energy>
21.00325

> <Potential Energy>
21.00325

> <RMS Gradient>
0.07928

> <Bond Energy>
4.82173

> <Angle Energy>
11.60572

> <STRBend>
1.03055

> <Dihedral Energy>
-4.82275

> <OOPLane>
0.07158

> <Van der Waals Energy>
50.84998

> <Electrostatic Energy>
-42.55357

> <Hydrogen Bond Energy>
0

> <Solvation Free Energy>
0

> <HasGasteigerCharges>
true

> <REMARK99>
REMARK  99  MacroMolecule created from Mol2 file
REMARK  99  CHEMBL222107
REMARK  99  PROTEIN
REMARK  99  GASTEIGER
REMARK  99
REMARK  99

$$$$
CHEMBL593796
  SciTegic05292516403D

 55 58  0  0  0  0            999 V2000
   -3.4505    1.8333    1.1404 C   0  0
   -4.0418    1.3070   -0.0133 C   0  0
   -3.4114    1.4804   -1.2522 C   0  0
   -2.1960    2.1556   -1.3327 C   0  0
   -1.5966    2.6710   -0.1778 C   0  0
   -2.2333    2.5075    1.0581 C   0  0
   -0.2547    3.3492   -0.2606 C   0  0
    0.8905    2.3372   -0.1404 C   0  0
    2.2284    3.0453   -0.2873 C   0  0
    3.4579    2.2113   -0.1674 C   0  0
    3.6779    0.8614    0.0085 C   0  0
    5.0316    0.6542    0.0399 O   0  0
    5.5879    1.9010   -0.1201 C   0  0
    4.6776    2.8512   -0.2425 N   0  0
    7.0450    1.9799   -0.1182 C   0  0
    7.8454    0.8398    0.0641 C   0  0
    9.2397    0.9345    0.0629 C   0  0
    9.8525    2.1727   -0.1196 C   0  0
    9.0742    3.3150   -0.2996 C   0  0
    7.6794    3.2180   -0.2987 C   0  0
    2.8278   -0.3329    0.1592 C   0  0
   -5.3229    0.5130    0.0719 C   0  0
   -5.0610   -0.9987    0.1162 C   0  0  1  0  0  0
   -4.5974   -1.4179    1.4842 C   0  0
   -3.4277   -1.5659    1.8177 O   0  0
   -5.5565   -1.5567    2.4268 O   0  0
   -6.2157   -1.7876   -0.2716 N   0  0
   -7.4637   -1.2655   -0.2921 N   0  0
   -8.1893   -2.3055   -0.7129 C   0  0
   -7.3503   -3.3948   -0.9719 C   0  0
   -6.0805   -3.0599   -0.7184 N   0  0
   -3.9250    1.7100    2.1119 H   0  0
   -3.8599    1.0822   -2.1605 H   0  0
   -1.7062    2.2652   -2.2981 H   0  0
   -1.7710    2.8909    1.9653 H   0  0
   -0.1834    3.8953   -1.2101 H   0  0
   -0.1765    4.1067    0.5297 H   0  0
    0.8346    1.8289    0.8302 H   0  0
    0.7890    1.5649   -0.9128 H   0  0
    2.2615    3.5446   -1.2646 H   0  0
    2.2937    3.8403    0.4673 H   0  0
    7.3736   -0.1315    0.2122 H   0  0
    9.8453    0.0430    0.2053 H   0  0
   10.9376    2.2478   -0.1204 H   0  0
    9.5507    4.2819   -0.4405 H   0  0
    7.0788    4.1157   -0.4394 H   0  0
    3.4320   -1.2387    0.2726 H   0  0
    2.1900   -0.4651   -0.7197 H   0  0
    2.1901   -0.2437    1.0436 H   0  0
   -5.9006    0.8405    0.9468 H   0  0
   -5.9316    0.7811   -0.8024 H   0  0
   -4.2759   -1.2745   -0.6004 H   0  0
   -5.0070   -1.7481    3.2194 H   0  0
   -9.2625   -2.2183   -0.8126 H   0  0
   -7.5958   -4.3863   -1.3283 H   0  0
  1  2  2  0
  1 32  1  0
  2  3  1  0
  2 22  1  0
  3  4  2  0
  3 33  1  0
  4  5  1  0
  4 34  1  0
  5  6  2  0
  5  7  1  0
  6  1  1  0
  6 35  1  0
  7  8  1  0
  7 36  1  0
  7 37  1  0
  8  9  1  0
  8 38  1  0
  8 39  1  0
  9 10  1  0
  9 40  1  0
  9 41  1  0
 10 11  2  0
 11 12  1  0
 11 21  1  0
 12 13  1  0
 13 14  2  0
 13 15  1  0
 14 10  1  0
 15 16  2  0
 16 17  1  0
 16 42  1  0
 17 18  2  0
 17 43  1  0
 18 19  1  0
 18 44  1  0
 19 20  2  0
 19 45  1  0
 20 15  1  0
 20 46  1  0
 21 47  1  0
 21 48  1  0
 21 49  1  0
 22 23  1  0
 22 50  1  0
 22 51  1  0
 23 24  1  0
 23 27  1  0
 23 52  1  0
 24 25  2  0
 24 26  1  0
 26 53  1  0
 27 28  1  0
 28 29  2  0
 29 30  1  0
 29 54  1  0
 30 31  2  0
 30 55  1  0
 31 27  1  0
M  END
> <Name>
CHEMBL593796

> <Clean Energy>
51.508801

> <chembl_id>
CHEMBL593796

> <chembl_pref_name>
None

> <efficacy>
0.956521739

> <Forcefield>
MMFF

> <ForcefieldBase>
MMFF

> <ForcefieldFFML>
<?xml version="1.0" encoding="UTF-8"?>
<!DOCTYPE ffml SYSTEM "Ffml.dtd">
<ffml version="1.0">
<forcefield name="MMFF" derivedFrom="MMFF" base="MMFF">
<atomTypes>
<atomType
name="C100"
element="C"
mass="12.011"
annotation=""/>
<atomType
name="O101"
element="O"
mass="16"
annotation=""/>
<atomType
name="N102"
element="N"
mass="14.007"
annotation=""/>
<atomType
name="H103"
element="H"
mass="1.008"
annotation=""/>
</atomTypes>
<parameters>
</parameters>
</forcefield>
</ffml>

> <Initial Potential Energy>
154.19476

> <Initial RMS Gradient>
33.4062

> <Minimization Criteria>
STEEPD> Minimization exiting with gradient tolerance ( 3.0000000) satisfied.

> <CHARMm Energy>
36.02757

> <Potential Energy>
36.02757

> <RMS Gradient>
0.03832

> <Bond Energy>
4.53377

> <Angle Energy>
9.79027

> <STRBend>
0.10469

> <Dihedral Energy>
1.4038

> <OOPLane>
0.16725

> <Van der Waals Energy>
44.20691

> <Electrostatic Energy>
-24.17912

> <Hydrogen Bond Energy>
0

> <Solvation Free Energy>
0

> <HasGasteigerCharges>
true

> <REMARK99>
REMARK  99  MacroMolecule created from Mol2 file
REMARK  99  CHEMBL593796
REMARK  99  PROTEIN
REMARK  99  GASTEIGER
REMARK  99
REMARK  99

$$$$
CHEMBL3764792
  SciTegic05292516403D

 57 58  0  0  0  0            999 V2000
   -2.2721   -2.4063   -1.9553 F   0  0
   -1.0170   -2.3862   -1.4271 C   0  0
   -0.1774   -2.5726   -2.4818 F   0  0
    1.7766    1.5142   -0.7672 O   0  0
    0.3734   -0.3304   -0.9893 C   0  0
    0.6757    0.8492   -0.3048 C   0  0
   -0.1288    1.2445    0.7594 C   0  0
   -1.2372    0.4755    1.1203 C   0  0
   -1.5600   -0.7075    0.4298 C   0  0
   -0.7421   -1.1191   -0.6449 C   0  0
   -2.7987   -1.4659    0.8494 C   0  0
   -3.9943   -0.8235    0.3714 N   0  0
   -5.1963   -1.4902    0.4326 C   0  0
   -6.4030   -0.7038    0.0938 C   0  0
   -5.3100   -2.6464    0.8201 O   0  0
   -7.5998   -1.0650    0.7199 C   0  0
   -8.7408   -0.2949    0.5318 C   0  0
   -8.6931    0.8416   -0.2838 C   0  0
   -7.5099    1.1647   -0.9597 C   0  0
   -6.3658    0.3907   -0.7765 C   0  0
   -9.8923    1.7423   -0.3696 C   0  0
   -9.7244    3.0435    0.4331 C   0  0  1  0  0  0
  -11.0183    3.7964    0.2557 C   0  0
   -9.4457    2.8242    1.9323 C   0  0
   -9.2304    4.1318    2.6869 C   0  0
  -10.8905    4.7519   -0.7045 O   0  0
  -12.0500    3.5518    0.8678 O   0  0
  -12.1001    5.4551   -0.9881 C   0  0
  -11.8092    6.4850   -2.0627 C   0  0
   -0.9095   -3.5043   -0.6599 F   0  0
    1.9967    2.8194   -0.2468 C   0  0
    1.0253   -0.6342   -1.8100 H   0  0
    0.0871    2.1404    1.3328 H   0  0
   -1.8661    0.8100    1.9462 H   0  0
   -2.7794   -2.5069    0.5135 H   0  0
   -2.8529   -1.5041    1.9448 H   0  0
   -3.9591    0.1592    0.1444 H   0  0
   -7.6387   -1.9291    1.3808 H   0  0
   -9.6546   -0.5675    1.0548 H   0  0
   -7.4695    2.0320   -1.6153 H   0  0
   -5.4612    0.6535   -1.3161 H   0  0
  -10.0799    1.9752   -1.4270 H   0  0
  -10.7880    1.2014   -0.0342 H   0  0
   -8.9018    3.6386    0.0153 H   0  0
  -10.2694    2.2722    2.4010 H   0  0
   -8.5416    2.2196    2.0622 H   0  0
   -8.9804    3.9246    3.7324 H   0  0
  -10.1288    4.7562    2.6770 H   0  0
   -8.4067    4.7049    2.2495 H   0  0
  -12.8620    4.7538   -1.3468 H   0  0
  -12.4592    5.9597   -0.0839 H   0  0
  -12.7108    7.0495   -2.3166 H   0  0
  -11.4278    6.0008   -2.9678 H   0  0
  -11.0369    7.1848   -1.7266 H   0  0
    2.8468    3.2531   -0.7823 H   0  0
    2.2593    2.7785    0.8152 H   0  0
    1.1307    3.4682   -0.4165 H   0  0
  2  1  1  0
  2 30  1  0
  3  2  1  0
  4 31  1  0
  5  6  2  0
  5 32  1  0
  6  4  1  0
  6  7  1  0
  7  8  2  0
  7 33  1  0
  8  9  1  0
  8 34  1  0
  9 10  2  0
  9 11  1  0
 10  2  1  0
 10  5  1  0
 11 12  1  0
 11 35  1  0
 11 36  1  0
 12 13  1  0
 12 37  1  0
 13 14  1  0
 13 15  2  0
 14 16  2  0
 16 17  1  0
 16 38  1  0
 17 18  2  0
 17 39  1  0
 18 19  1  0
 18 21  1  0
 19 20  2  0
 19 40  1  0
 20 14  1  0
 20 41  1  0
 21 22  1  0
 21 42  1  0
 21 43  1  0
 22 23  1  0
 22 24  1  0
 22 44  1  0
 23 26  1  0
 23 27  2  0
 24 25  1  0
 24 45  1  0
 24 46  1  0
 25 47  1  0
 25 48  1  0
 25 49  1  0
 26 28  1  0
 28 29  1  0
 28 50  1  0
 28 51  1  0
 29 52  1  0
 29 53  1  0
 29 54  1  0
 31 55  1  0
 31 56  1  0
 31 57  1  0
M  END
> <Name>
CHEMBL3764792

> <Clean Energy>
29.159

> <chembl_id>
CHEMBL3764792

> <chembl_pref_name>
None

> <efficacy>
1.291547958

> <Forcefield>
MMFF

> <ForcefieldBase>
MMFF

> <ForcefieldFFML>
<?xml version="1.0" encoding="UTF-8"?>
<!DOCTYPE ffml SYSTEM "Ffml.dtd">
<ffml version="1.0">
<forcefield name="MMFF" derivedFrom="MMFF" base="MMFF">
<atomTypes>
<atomType
name="F100"
element="F"
mass="18.998"
annotation=""/>
<atomType
name="C101"
element="C"
mass="12.011"
annotation=""/>
<atomType
name="O102"
element="O"
mass="16"
annotation=""/>
<atomType
name="N103"
element="N"
mass="14.007"
annotation=""/>
<atomType
name="H104"
element="H"
mass="1.008"
annotation=""/>
</atomTypes>
<parameters>
</parameters>
</forcefield>
</ffml>

> <Initial Potential Energy>
97.28012

> <Initial RMS Gradient>
23.81474

> <Minimization Criteria>
STEEPD> Minimization exiting with gradient tolerance ( 3.0000000) satisfied.

> <CHARMm Energy>
32.04238

> <Potential Energy>
32.04238

> <RMS Gradient>
0.02317

> <Bond Energy>
4.87246

> <Angle Energy>
11.39897

> <STRBend>
0.36799

> <Dihedral Energy>
-3.15039

> <OOPLane>
0.25819

> <Van der Waals Energy>
56.46421

> <Electrostatic Energy>
-38.16907

> <Hydrogen Bond Energy>
0

> <Solvation Free Energy>
0

> <HasGasteigerCharges>
true

> <REMARK99>
REMARK  99  MacroMolecule created from Mol2 file
REMARK  99  CHEMBL3764792
REMARK  99  PROTEIN
REMARK  99  GASTEIGER
REMARK  99
REMARK  99

$$$$
CHEMBL526740
  SciTegic05292516403D

 48 49  0  0  0  0            999 V2000
   -6.5343   -9.1224    0.6821 C   0  0
   -6.3243  -10.3029   -0.0301 C   0  0
   -5.0390  -10.6558   -0.4603 C   0  0
   -3.9668   -9.8000   -0.1694 C   0  0
   -4.1725   -8.6172    0.5563 C   0  0
   -5.4631   -8.2783    0.9739 C   0  0
   -3.0097   -7.7241    0.8333 C   0  0
   -3.0586   -6.8358    2.0615 C   0  0
   -2.0068   -7.7322    0.0031 N   0  0
   -1.0343   -6.7949    0.3802 O   0  0
   -0.0408   -6.7145   -0.6402 C   0  0
    0.7859   -5.4808   -0.3865 C   0  0
    2.0504   -5.5764    0.2100 C   0  0
    2.7982   -4.4243    0.4662 C   0  0
    2.2804   -3.1727    0.1327 C   0  0
    1.0193   -3.0643   -0.4520 C   0  0
    0.2739   -4.2147   -0.7086 C   0  0
   -4.8142  -11.9460   -1.2153 C   0  0
   -4.0995  -13.0338   -0.3969 C   0  0  1  0  0  0
   -5.0891  -13.6880    0.5873 C   0  0
   -3.5763  -13.9730   -1.3479 O   0  0
   -2.5850  -14.8349   -0.7917 C   0  0
   -2.1572  -15.8180   -1.8639 C   0  0
   -5.3790  -12.9339    1.6754 O   0  0
   -5.5709  -14.8045    0.4526 O   0  0
    3.3888   -1.4566    0.5193 I   0  0
   -7.5400   -8.8539    0.9984 H   0  0
   -7.1770  -10.9433   -0.2517 H   0  0
   -2.9645  -10.0456   -0.5191 H   0  0
   -5.6615   -7.3483    1.4995 H   0  0
   -3.2880   -5.8117    1.7546 H   0  0
   -2.0924   -6.8500    2.5744 H   0  0
   -3.8039   -7.1744    2.7852 H   0  0
    0.5789   -7.6180   -0.6122 H   0  0
   -0.5085   -6.6481   -1.6306 H   0  0
    2.4580   -6.5472    0.4847 H   0  0
    3.7794   -4.5134    0.9267 H   0  0
    0.6107   -2.0898   -0.7111 H   0  0
   -0.7149   -4.1205   -1.1536 H   0  0
   -5.7702  -12.3314   -1.5947 H   0  0
   -4.2287  -11.7136   -2.1158 H   0  0
   -3.2619  -12.6147    0.1740 H   0  0
   -1.7236  -14.2397   -0.4697 H   0  0
   -2.9853  -15.3787    0.0700 H   0  0
   -1.3869  -16.4972   -1.4874 H   0  0
   -1.7649  -15.2880   -2.7385 H   0  0
   -3.0128  -16.4097   -2.2068 H   0  0
   -4.9518  -12.0546    1.6871 H   0  0
  1  2  2  0
  1 27  1  0
  2  3  1  0
  2 28  1  0
  3  4  2  0
  3 18  1  0
  4  5  1  0
  4 29  1  0
  5  6  2  0
  5  7  1  0
  6  1  1  0
  6 30  1  0
  7  8  1  0
  7  9  2  0
  8 31  1  0
  8 32  1  0
  8 33  1  0
  9 10  1  0
 10 11  1  0
 11 12  1  0
 11 34  1  0
 11 35  1  0
 12 13  2  0
 13 14  1  0
 13 36  1  0
 14 15  2  0
 14 37  1  0
 15 16  1  0
 15 26  1  0
 16 17  2  0
 16 38  1  0
 17 12  1  0
 17 39  1  0
 18 19  1  0
 18 40  1  0
 18 41  1  0
 19 20  1  0
 19 21  1  0
 19 42  1  0
 20 24  1  0
 20 25  2  0
 21 22  1  0
 22 23  1  0
 22 43  1  0
 22 44  1  0
 23 45  1  0
 23 46  1  0
 23 47  1  0
 24 48  1  0
M  END
> <Name>
CHEMBL526740

> <Clean Energy>
30.7136

> <chembl_id>
CHEMBL526740

> <chembl_pref_name>
None

> <efficacy>
1.46

> <Forcefield>
MMFF

> <ForcefieldBase>
MMFF

> <ForcefieldFFML>
<?xml version="1.0" encoding="UTF-8"?>
<!DOCTYPE ffml SYSTEM "Ffml.dtd">
<ffml version="1.0">
<forcefield name="MMFF" derivedFrom="MMFF" base="MMFF">
<atomTypes>
<atomType
name="C100"
element="C"
mass="12.011"
annotation=""/>
<atomType
name="N101"
element="N"
mass="14.007"
annotation=""/>
<atomType
name="O102"
element="O"
mass="16"
annotation=""/>
<atomType
name="I103"
element="I"
mass="126.905"
annotation=""/>
<atomType
name="H104"
element="H"
mass="1.008"
annotation=""/>
</atomTypes>
<parameters>
</parameters>
</forcefield>
</ffml>

> <Initial Potential Energy>
199.84425

> <Initial RMS Gradient>
26.57586

> <Minimization Criteria>
STEEPD> Minimization exiting with gradient tolerance ( 3.0000000) satisfied.

> <CHARMm Energy>
104.61443

> <Potential Energy>
104.61443

> <RMS Gradient>
0.09709

> <Bond Energy>
4.9784

> <Angle Energy>
6.83535

> <STRBend>
1.16927

> <Dihedral Energy>
1.40208

> <OOPLane>
0.04147

> <Van der Waals Energy>
47.48824

> <Electrostatic Energy>
42.69963

> <Hydrogen Bond Energy>
0

> <Solvation Free Energy>
0

> <HasGasteigerCharges>
true

> <REMARK99>
REMARK  99  MacroMolecule created from Mol2 file
REMARK  99  CHEMBL526740
REMARK  99  PROTEIN
REMARK  99  GASTEIGER
REMARK  99
REMARK  99

$$$$
CHEMBL167352
  SciTegic05292516403D

 59 62  0  0  0  0            999 V2000
    0.1191   -1.9373   -0.1758 N   0  0
    0.0091   -3.3439   -0.3062 C   0  0
   -0.9387   -1.0038   -0.0480 C   0  0
   -2.2423   -2.3667    1.6585 C   0  0
   -1.7638   -3.6037    1.4988 C   0  0
   10.2159    1.6717    0.6810 C   0  0
   -0.9266   -4.1164    0.4083 C   0  0
   -2.0673   -1.2161    0.7669 C   0  0
    9.1127    0.7083    0.2516 C   0  0  2  0  0  0
   10.3944    2.7951    0.2335 O   0  0
    7.7820    1.2174    0.8119 C   0  0
    1.4846   -1.4108    0.0423 C   0  0
    6.5965    0.4869    0.2299 C   0  0
   11.0100    1.1342    1.6477 O   0  0
    4.4617   -0.9113   -0.8811 C   0  0
    9.4705   -0.5633    0.8475 O   0  0
    6.0412   -0.6077    0.9072 C   0  0
    6.0819    0.8624   -1.0194 C   0  0
    4.9825   -1.3159    0.3443 C   0  0
    5.0154    0.1607   -1.5768 C   0  0
    3.4353   -1.6276   -1.4290 O   0  0
    2.1790   -0.9496   -1.2495 C   0  0
   -0.8912    0.2020   -0.7863 C   0  0
    0.8609   -4.0242   -1.2094 C   0  0
   -3.0790   -0.2343    0.8346 C   0  0
   -1.0039   -5.5064    0.1832 C   0  0
    9.3301   -1.6482   -0.0751 C   0  0
   -1.9070    1.1594   -0.7220 C   0  0
    0.7626   -5.4006   -1.4322 C   0  0
    9.6499   -2.9344    0.6596 C   0  0
   -0.1785   -6.1432   -0.7391 C   0  0
   -3.0048    0.9414    0.0927 C   0  0
   -2.8649   -2.1869    2.5339 H   0  0
   -2.0324   -4.3373    2.2581 H   0  0
    9.1347    0.6491   -0.8434 H   0  0
    7.7671    1.1134    1.9050 H   0  0
    7.6618    2.2897    0.6098 H   0  0
    1.4466   -0.5651    0.7431 H   0  0
    2.0894   -2.1671    0.5602 H   0  0
   10.6619    0.2219    1.8116 H   0  0
    6.4516   -0.9294    1.8628 H   0  0
    6.5204    1.6950   -1.5687 H   0  0
    4.5714   -2.1797    0.8586 H   0  0
    4.6252    0.4435   -2.5501 H   0  0
    2.3014    0.1420   -1.2478 H   0  0
    1.5769   -1.1863   -2.1338 H   0  0
   -0.0722    0.4011   -1.4683 H   0  0
    1.6006   -3.4814   -1.7903 H   0  0
   -3.9491   -0.3866    1.4710 H   0  0
   -1.7205   -6.1103    0.7360 H   0  0
    8.3141   -1.6899   -0.4761 H   0  0
   10.0338   -1.5102   -0.9033 H   0  0
   -1.8458    2.0641   -1.3210 H   0  0
    1.4100   -5.8862   -2.1573 H   0  0
    9.5902   -3.7942   -0.0134 H   0  0
    8.9523   -3.0859    1.4899 H   0  0
   10.6551   -2.8920    1.0920 H   0  0
   -0.2713   -7.2131   -0.9060 H   0  0
   -3.8060    1.6736    0.1482 H   0  0
  2  1  1  0
  3  1  1  0
  4  5  2  0
  4  8  1  0
  4 33  1  0
  5  7  1  0
  5 34  1  0
  6  9  1  0
  7  2  2  0
  8  3  2  0
  9 11  1  0
  9 35  1  0
 10  6  2  0
 11 13  1  0
 11 36  1  0
 11 37  1  0
 12  1  1  0
 12 38  1  0
 12 39  1  0
 13 18  2  0
 14  6  1  0
 14 40  1  0
 15 21  1  0
 16  9  1  0
 17 13  1  0
 17 19  2  0
 17 41  1  0
 18 20  1  0
 18 42  1  0
 19 15  1  0
 19 43  1  0
 20 15  2  0
 20 44  1  0
 21 22  1  0
 22 12  1  0
 22 45  1  0
 22 46  1  0
 23  3  1  0
 23 47  1  0
 24  2  1  0
 24 48  1  0
 25  8  1  0
 25 49  1  0
 26  7  1  0
 26 31  2  0
 26 50  1  0
 27 16  1  0
 27 51  1  0
 27 52  1  0
 28 23  2  0
 28 53  1  0
 29 24  2  0
 29 54  1  0
 30 27  1  0
 30 55  1  0
 30 56  1  0
 30 57  1  0
 31 29  1  0
 31 58  1  0
 32 25  2  0
 32 28  1  0
 32 59  1  0
M  END
> <Name>
CHEMBL167352

> <Clean Energy>
43.525299

> <chembl_id>
CHEMBL167352

> <chembl_pref_name>
None

> <efficacy>
1.258

> <Forcefield>
MMFF

> <ForcefieldBase>
MMFF

> <ForcefieldFFML>
<?xml version="1.0" encoding="UTF-8"?>
<!DOCTYPE ffml SYSTEM "Ffml.dtd">
<ffml version="1.0">
<forcefield name="MMFF" derivedFrom="MMFF" base="MMFF">
<atomTypes>
<atomType
name="N100"
element="N"
mass="14.007"
annotation=""/>
<atomType
name="C101"
element="C"
mass="12.011"
annotation=""/>
<atomType
name="O102"
element="O"
mass="16"
annotation=""/>
<atomType
name="H103"
element="H"
mass="1.008"
annotation=""/>
</atomTypes>
<parameters>
</parameters>
</forcefield>
</ffml>

> <Initial Potential Energy>
245.67027

> <Initial RMS Gradient>
27.94582

> <Minimization Criteria>
STEEPD> Minimization exiting with gradient tolerance ( 3.0000000) satisfied.

> <CHARMm Energy>
127.96183

> <Potential Energy>
127.96183

> <RMS Gradient>
0.1494

> <Bond Energy>
7.64749

> <Angle Energy>
15.34092

> <STRBend>
1.47842

> <Dihedral Energy>
31.34597

> <OOPLane>
0.27865

> <Van der Waals Energy>
73.58148

> <Electrostatic Energy>
-1.7111

> <Hydrogen Bond Energy>
0

> <Solvation Free Energy>
0

> <HasGasteigerCharges>
true

> <REMARK99>
REMARK  99  MacroMolecule created from Mol2 file
REMARK  99  CHEMBL167352
REMARK  99  PROTEIN
REMARK  99  GASTEIGER
REMARK  99
REMARK  99

$$$$
CHEMBL523650
  SciTegic05292516403D

 46 48  0  0  0  0            999 V2000
    0.4712  -23.3853    0.2605 C   0  0
    0.6541  -24.6608   -0.2718 C   0  0
    1.9382  -25.1209   -0.5911 C   0  0
    3.0414  -24.2701   -0.3925 C   0  0
    2.8572  -22.9775    0.1148 C   0  0
    1.5690  -22.5474    0.4563 C   0  0
    3.9859  -22.0297    0.2745 C   0  0
    5.3211  -22.2559   -0.3547 C   0  0
    3.9014  -20.9364    0.9674 N   0  0
    5.1530  -20.2799    0.8454 O   0  0
    5.7981  -20.8170   -0.3231 C   0  0  1  0  0  0
    7.3045  -20.6596   -0.2992 C   0  0
    8.0485  -20.9538   -1.4564 C   0  0
    9.4331  -20.7679   -1.4803 C   0  0
   10.0895  -20.2958   -0.3447 C   0  0
    9.3701  -20.0280    0.8181 C   0  0
    7.9845  -20.2034    0.8400 C   0  0
    2.1374  -26.5147   -1.1478 C   0  0
    2.3593  -27.5781   -0.0543 C   0  0  1  0  0  0
    1.0181  -28.2860    0.2146 C   0  0
    3.4239  -28.4166   -0.5126 O   0  0
    3.7936  -29.4279    0.4251 C   0  0
    4.9964  -30.1676   -0.1275 C   0  0
    0.2217  -27.6290    1.0967 O   0  0
    0.6662  -29.3444   -0.2885 O   0  0
   11.7915  -20.0365   -0.3802 Cl  0  0
   -0.5307  -23.0364    0.5060 H   0  0
   -0.2215  -25.2857   -0.4480 H   0  0
    4.0368  -24.6270   -0.6473 H   0  0
    1.4124  -21.5464    0.8554 H   0  0
    5.9107  -22.9150    0.2910 H   0  0
    5.2684  -22.6584   -1.3684 H   0  0
    5.4041  -20.2545   -1.1808 H   0  0
    7.5424  -21.3258   -2.3466 H   0  0
   10.0016  -20.9616   -2.3886 H   0  0
    9.8832  -19.6572    1.7029 H   0  0
    7.4389  -19.9681    1.7529 H   0  0
    1.2772  -26.7722   -1.7804 H   0  0
    2.9938  -26.4867   -1.8353 H   0  0
    2.7004  -27.1180    0.8820 H   0  0
    4.0514  -28.9674    1.3850 H   0  0
    2.9703  -30.1324    0.5739 H   0  0
    5.3207  -30.9538    0.5600 H   0  0
    5.8303  -29.4777   -0.2943 H   0  0
    4.7589  -30.6205   -1.0958 H   0  0
    0.6080  -26.8051    1.4554 H   0  0
  1  2  2  0
  1 27  1  0
  2  3  1  0
  2 28  1  0
  3  4  2  0
  3 18  1  0
  4  5  1  0
  4 29  1  0
  5  6  2  0
  5  7  1  0
  6  1  1  0
  6 30  1  0
  7  8  1  0
  7  9  2  0
  8 11  1  0
  8 31  1  0
  8 32  1  0
  9 10  1  0
 10 11  1  0
 11 12  1  0
 11 33  1  0
 12 13  2  0
 13 14  1  0
 13 34  1  0
 14 15  2  0
 14 35  1  0
 15 16  1  0
 15 26  1  0
 16 17  2  0
 16 36  1  0
 17 12  1  0
 17 37  1  0
 18 19  1  0
 18 38  1  0
 18 39  1  0
 19 20  1  0
 19 21  1  0
 19 40  1  0
 20 24  1  0
 20 25  2  0
 21 22  1  0
 22 23  1  0
 22 41  1  0
 22 42  1  0
 23 43  1  0
 23 44  1  0
 23 45  1  0
 24 46  1  0
M  END
> <Name>
CHEMBL523650

> <Clean Energy>
46.7985

> <chembl_id>
CHEMBL523650

> <chembl_pref_name>
None

> <efficacy>
1.67

> <Forcefield>
MMFF

> <ForcefieldBase>
MMFF

> <ForcefieldFFML>
<?xml version="1.0" encoding="UTF-8"?>
<!DOCTYPE ffml SYSTEM "Ffml.dtd">
<ffml version="1.0">
<forcefield name="MMFF" derivedFrom="MMFF" base="MMFF">
<atomTypes>
<atomType
name="C100"
element="C"
mass="12.011"
annotation=""/>
<atomType
name="N101"
element="N"
mass="14.007"
annotation=""/>
<atomType
name="O102"
element="O"
mass="16"
annotation=""/>
<atomType
name="Cl103"
element="Cl"
mass="35.453"
annotation=""/>
<atomType
name="H104"
element="H"
mass="1.008"
annotation=""/>
</atomTypes>
<parameters>
</parameters>
</forcefield>
</ffml>

> <Initial Potential Energy>
240.26136

> <Initial RMS Gradient>
47.09261

> <Minimization Criteria>
CONJUG> Minimization exiting with gradient tolerance ( 0.0100000) satisfied.

> <CHARMm Energy>
94.65897

> <Potential Energy>
94.65897

> <RMS Gradient>
0.00942

> <Bond Energy>
5.30201

> <Angle Energy>
11.91115

> <STRBend>
0.88115

> <Dihedral Energy>
4.03741

> <OOPLane>
0.01544

> <Van der Waals Energy>
43.50123

> <Electrostatic Energy>
29.01058

> <Hydrogen Bond Energy>
0

> <Solvation Free Energy>
0

> <HasGasteigerCharges>
true

> <REMARK99>
REMARK  99  MacroMolecule created from Mol2 file
REMARK  99  CHEMBL523650
REMARK  99  PROTEIN
REMARK  99  GASTEIGER
REMARK  99
REMARK  99

$$$$
CHEMBL3597433
  SciTegic05292516403D

 66 69  0  0  0  0            999 V2000
   -2.0247    1.1770   -0.0975 C   0  0
   -2.1568   -0.1937    0.1200 C   0  0
   -1.0426   -1.0326    0.1871 C   0  0
   -0.7500    1.7430   -0.2404 C   0  0
    0.4007    0.9182   -0.1718 C   0  0
    0.2268   -0.4540    0.0337 C   0  0
    1.4822   -1.0318    0.0359 N   0  0
    2.4308   -0.0666   -0.1621 C   0  0
    1.8115    1.1646   -0.2806 C   0  0
    2.4782    2.4910   -0.5204 C   0  0
    3.9529    2.4828   -0.1582 C   0  0
    4.1951    2.4481    1.1799 O   0  0
    4.8697    2.4274   -0.9696 O   0  0
   -3.2173    1.8525   -0.1479 O   0  0
   -3.1626    3.2447   -0.4396 C   0  0
   -4.5827    3.8093   -0.4270 C   0  0
   -4.5460    5.3089   -0.6861 C   0  0
   -5.8535    5.8797   -0.5330 O   0  0
   -5.8212    7.2086   -0.1787 C   0  0
   -6.8803    7.6625    0.6022 C   0  0
   -6.8851    8.9767    1.0731 C   0  0
   -5.8208    9.8314    0.7773 C   0  0
   -4.7609    9.3871   -0.0099 C   0  0
   -4.7962    8.0939   -0.5344 C   0  0
   -3.7386   10.2821   -0.1961 O   0  0
   -2.4691    9.7019   -0.5239 C   0  0
   -1.3186   10.6307   -0.1927 C   0  0
   -0.0165   10.1039   -0.2733 C   0  0
    1.0935   10.8740    0.0646 C   0  0
    0.9094   12.1872    0.4740 C   0  0
   -0.3694   12.7456    0.5274 C   0  0
   -1.4846   11.9685    0.1929 C   0  0
    1.7071   -2.4614    0.2033 C   0  0
    2.2749   13.1319    0.9169 Cl  0  0
    3.1653   -2.9231    0.2393 C   0  0
    3.2620   -4.4269    0.4445 C   0  0
   -3.1520   -0.6172    0.2339 H   0  0
   -1.1688   -2.0994    0.3471 H   0  0
   -0.6127    2.8030   -0.4108 H   0  0
    3.4829   -0.3183   -0.2132 H   0  0
    2.3904    2.7583   -1.5799 H   0  0
    1.9872    3.2877    0.0495 H   0  0
    3.3650    2.5592    1.6897 H   0  0
   -2.5662    3.7593    0.3237 H   0  0
   -2.7155    3.4023   -1.4286 H   0  0
   -5.2059    3.3049   -1.1752 H   0  0
   -5.0649    3.5998    0.5358 H   0  0
   -3.8393    5.7527    0.0283 H   0  0
   -4.1948    5.4970   -1.7078 H   0  0
   -7.6931    6.9888    0.8608 H   0  0
   -7.7053    9.3296    1.6917 H   0  0
   -5.8145   10.8434    1.1743 H   0  0
   -4.0114    7.7635   -1.2045 H   0  0
   -2.3121    8.7801    0.0518 H   0  0
   -2.4452    9.4883   -1.5991 H   0  0
    0.1394    9.0748   -0.5882 H   0  0
    2.0875   10.4373    0.0143 H   0  0
   -0.5053   13.7825    0.8333 H   0  0
   -2.4781   12.4144    0.2475 H   0  0
    1.2123   -2.7435    1.1407 H   0  0
    1.1843   -2.9542   -0.6254 H   0  0
    3.6686   -2.6602   -0.6987 H   0  0
    3.7026   -2.4171    1.0501 H   0  0
    4.3104   -4.7407    0.4655 H   0  0
    2.7623   -4.9662   -0.3664 H   0  0
    2.7999   -4.7240    1.3913 H   0  0
  1  2  2  0
  1 14  1  0
  2  3  1  0
  2 37  1  0
  3  6  2  0
  3 38  1  0
  4  1  1  0
  4 39  1  0
  5  4  2  0
  5  6  1  0
  6  7  1  0
  7  8  1  0
  7 33  1  0
  8  9  2  0
  8 40  1  0
  9  5  1  0
  9 10  1  0
 10 11  1  0
 10 41  1  0
 10 42  1  0
 11 12  1  0
 11 13  2  0
 12 43  1  0
 14 15  1  0
 15 16  1  0
 15 44  1  0
 15 45  1  0
 16 17  1  0
 16 46  1  0
 16 47  1  0
 17 18  1  0
 17 48  1  0
 17 49  1  0
 18 19  1  0
 19 20  2  0
 20 21  1  0
 20 50  1  0
 21 22  2  0
 21 51  1  0
 22 23  1  0
 22 52  1  0
 23 24  2  0
 23 25  1  0
 24 19  1  0
 24 53  1  0
 25 26  1  0
 26 27  1  0
 26 54  1  0
 26 55  1  0
 27 28  2  0
 28 29  1  0
 28 56  1  0
 29 30  2  0
 29 57  1  0
 30 31  1  0
 30 34  1  0
 31 32  2  0
 31 58  1  0
 32 27  1  0
 32 59  1  0
 33 35  1  0
 33 60  1  0
 33 61  1  0
 35 36  1  0
 35 62  1  0
 35 63  1  0
 36 64  1  0
 36 65  1  0
 36 66  1  0
M  END
> <Name>
CHEMBL3597433

> <Clean Energy>
21.9639

> <chembl_id>
CHEMBL3597433

> <chembl_pref_name>
None

> <efficacy>
1.103

> <Forcefield>
MMFF

> <ForcefieldBase>
MMFF

> <ForcefieldFFML>
<?xml version="1.0" encoding="UTF-8"?>
<!DOCTYPE ffml SYSTEM "Ffml.dtd">
<ffml version="1.0">
<forcefield name="MMFF" derivedFrom="MMFF" base="MMFF">
<atomTypes>
<atomType
name="C100"
element="C"
mass="12.011"
annotation=""/>
<atomType
name="N101"
element="N"
mass="14.007"
annotation=""/>
<atomType
name="O102"
element="O"
mass="16"
annotation=""/>
<atomType
name="Cl103"
element="Cl"
mass="35.453"
annotation=""/>
<atomType
name="H104"
element="H"
mass="1.008"
annotation=""/>
</atomTypes>
<parameters>
</parameters>
</forcefield>
</ffml>

> <Initial Potential Energy>
143.13298

> <Initial RMS Gradient>
27.55444

> <Minimization Criteria>
STEEPD> Minimization exiting with gradient tolerance ( 3.0000000) satisfied.

> <CHARMm Energy>
58.37209

> <Potential Energy>
58.37209

> <RMS Gradient>
0.06367

> <Bond Energy>
6.26603

> <Angle Energy>
20.28528

> <STRBend>
-0.02465

> <Dihedral Energy>
-3.57819

> <OOPLane>
0.15418

> <Van der Waals Energy>
71.29609

> <Electrostatic Energy>
-36.02666

> <Hydrogen Bond Energy>
0

> <Solvation Free Energy>
0

> <HasGasteigerCharges>
true

> <REMARK99>
REMARK  99  MacroMolecule created from Mol2 file
REMARK  99  CHEMBL3597433
REMARK  99  PROTEIN
REMARK  99  GASTEIGER
REMARK  99
REMARK  99

$$$$
CHEMBL1935617
  SciTegic05292516403D

 75 77  0  0  0  0            999 V2000
    5.9942  -17.1643    0.0485 N   0  0
    7.1297  -17.7993    0.5407 C   0  0
    8.4240  -17.0742    0.4706 C   0  0
    7.0596  -18.9057    1.0714 O   0  0
    9.5679  -17.7291    0.7234 C   0  0
    1.1008  -15.8386   -0.8547 C   0  0
    1.0607  -16.8797    0.0711 C   0  0
    2.2511  -17.5316    0.4225 C   0  0
    2.3210  -15.4594   -1.4261 C   0  0
    3.5086  -16.1106   -1.0703 C   0  0
    3.4832  -17.1530   -0.1370 C   0  0
    4.7422  -17.9263    0.1698 C   0  0
    5.9799  -15.8981   -0.7297 C   0  0  1  0  0  0
    4.8189  -15.7673   -1.7203 C   0  0
    6.0351  -14.6611    0.1822 C   0  0
    6.0058  -14.9424    1.5064 O   0  0
    6.1999  -13.5213   -0.2341 O   0  0
   -0.0667  -17.3626    0.6826 O   0  0
   -1.3113  -16.7156    0.3735 C   0  0
   -2.4386  -17.3980    1.1566 C   0  0
   -3.7377  -16.6664    1.1001 C   0  0
   -4.0779  -15.4544    1.6534 C   0  0
   -5.3846  -15.2121    1.3615 O   0  0
   -5.8352  -16.3179    0.6583 C   0  0
   -4.8524  -17.1973    0.4764 N   0  0
   -3.3749  -14.4329    2.4477 C   0  0
   -7.1857  -16.4136    0.2190 C   0  0
   -7.6481  -17.4923   -0.4328 C   0  0
   -9.0625  -17.6357   -0.9161 C   0  0
   -9.7658  -18.8079   -0.2242 C   0  0
  -11.1780  -19.0862   -0.7733 C   0  0
  -11.7398  -20.3608   -0.1380 C   0  0
  -12.1404  -17.9228   -0.5296 C   0  0
   10.9101  -17.0791    0.7546 C   0  0
   11.7303  -17.7311   -0.2099 O   0  0
   13.0576  -17.2116   -0.2096 C   0  0
   13.8619  -17.9511   -1.2601 C   0  0
    8.4466  -16.0127    0.2707 H   0  0
    9.5606  -18.7960    0.9406 H   0  0
    0.2049  -15.3106   -1.1673 H   0  0
    2.2032  -18.3595    1.1288 H   0  0
    2.3287  -14.6576   -2.1624 H   0  0
    4.6848  -18.3246    1.1905 H   0  0
    4.8096  -18.7786   -0.5179 H   0  0
    6.9117  -15.8685   -1.3077 H   0  0
    4.9690  -16.4625   -2.5563 H   0  0
    4.7836  -14.7550   -2.1403 H   0  0
    5.6965  -15.8645    1.6458 H   0  0
   -1.2465  -15.6584    0.6580 H   0  0
   -1.5222  -16.7924   -0.7005 H   0  0
   -2.5676  -18.4206    0.7810 H   0  0
   -2.1368  -17.5098    2.2058 H   0  0
   -4.0387  -14.0004    3.2027 H   0  0
   -3.0191  -13.6264    1.7995 H   0  0
   -2.5121  -14.8623    2.9660 H   0  0
   -7.8314  -15.5718    0.4399 H   0  0
   -6.9752  -18.3232   -0.6443 H   0  0
   -9.6156  -16.7061   -0.7423 H   0  0
   -9.0431  -17.8001   -1.9999 H   0  0
   -9.1557  -19.7126   -0.3494 H   0  0
   -9.8203  -18.6172    0.8560 H   0  0
  -11.1081  -19.2532   -1.8556 H   0  0
  -12.7287  -20.5959   -0.5459 H   0  0
  -11.8374  -20.2543    0.9478 H   0  0
  -11.0865  -21.2167   -0.3378 H   0  0
  -13.1508  -18.1777   -0.8676 H   0  0
  -11.8330  -17.0283   -1.0794 H   0  0
  -12.1948  -17.6687    0.5343 H   0  0
   10.8477  -16.0099    0.5217 H   0  0
   11.3448  -17.1992    1.7533 H   0  0
   13.0366  -16.1412   -0.4420 H   0  0
   13.5118  -17.3565    0.7768 H   0  0
   14.8909  -17.5825   -1.2948 H   0  0
   13.4088  -17.8287   -2.2494 H   0  0
   13.8780  -19.0253   -1.0476 H   0  0
  1  2  1  0
  1 13  1  0
  2  3  1  0
  2  4  2  0
  3  5  2  0
  3 38  1  0
  5 34  1  0
  5 39  1  0
  6  7  2  0
  6 40  1  0
  7  8  1  0
  7 18  1  0
  8 11  2  0
  8 41  1  0
  9  6  1  0
  9 42  1  0
 10  9  2  0
 10 11  1  0
 10 14  1  0
 11 12  1  0
 12  1  1  0
 12 43  1  0
 12 44  1  0
 13 14  1  0
 13 15  1  0
 13 45  1  0
 14 46  1  0
 14 47  1  0
 15 16  1  0
 15 17  2  0
 16 48  1  0
 18 19  1  0
 19 20  1  0
 19 49  1  0
 19 50  1  0
 20 21  1  0
 20 51  1  0
 20 52  1  0
 21 22  2  0
 22 23  1  0
 22 26  1  0
 23 24  1  0
 24 25  2  0
 24 27  1  0
 25 21  1  0
 26 53  1  0
 26 54  1  0
 26 55  1  0
 27 28  2  0
 27 56  1  0
 28 29  1  0
 28 57  1  0
 29 30  1  0
 29 58  1  0
 29 59  1  0
 30 31  1  0
 30 60  1  0
 30 61  1  0
 31 32  1  0
 31 33  1  0
 31 62  1  0
 32 63  1  0
 32 64  1  0
 32 65  1  0
 33 66  1  0
 33 67  1  0
 33 68  1  0
 34 35  1  0
 34 69  1  0
 34 70  1  0
 35 36  1  0
 36 37  1  0
 36 71  1  0
 36 72  1  0
 37 73  1  0
 37 74  1  0
 37 75  1  0
M  END
> <Name>
CHEMBL1935617

> <Clean Energy>
59.1791

> <chembl_id>
CHEMBL1935617

> <chembl_pref_name>
None

> <efficacy>
1.136842105

> <Forcefield>
MMFF

> <ForcefieldBase>
MMFF

> <ForcefieldFFML>
<?xml version="1.0" encoding="UTF-8"?>
<!DOCTYPE ffml SYSTEM "Ffml.dtd">
<ffml version="1.0">
<forcefield name="MMFF" derivedFrom="MMFF" base="MMFF">
<atomTypes>
<atomType
name="N100"
element="N"
mass="14.007"
annotation=""/>
<atomType
name="C101"
element="C"
mass="12.011"
annotation=""/>
<atomType
name="O102"
element="O"
mass="16"
annotation=""/>
<atomType
name="H103"
element="H"
mass="1.008"
annotation=""/>
</atomTypes>
<parameters>
</parameters>
</forcefield>
</ffml>

> <Initial Potential Energy>
116.77672

> <Initial RMS Gradient>
20.21846

> <Minimization Criteria>
STEEPD> Minimization exiting with gradient tolerance ( 3.0000000) satisfied.

> <CHARMm Energy>
20.12464

> <Potential Energy>
20.12464

> <RMS Gradient>
0.02957

> <Bond Energy>
6.54214

> <Angle Energy>
19.59631

> <STRBend>
0.42374

> <Dihedral Energy>
-11.32315

> <OOPLane>
0.42947

> <Van der Waals Energy>
55.5603

> <Electrostatic Energy>
-51.10416

> <Hydrogen Bond Energy>
0

> <Solvation Free Energy>
0

> <HasGasteigerCharges>
true

> <REMARK99>
REMARK  99  MacroMolecule created from Mol2 file
REMARK  99  CHEMBL1935617
REMARK  99  PROTEIN
REMARK  99  GASTEIGER
REMARK  99
REMARK  99

$$$$
CHEMBL3398440
  SciTegic05292516403D

 65 68  0  0  0  0            999 V2000
    9.1683   -1.2388    0.6975 C   0  0
   10.5212   -1.0296    0.9746 C   0  0
    1.8877   -1.3350   -0.5028 C   0  0
    1.8928    0.0658   -0.6408 C   0  0
    8.5708   -2.4553    1.0420 C   0  0
    0.6850   -2.0449   -0.5231 C   0  0
    3.1651    0.7767   -0.6049 C   0  0
    5.2124    1.3661   -0.5282 C   0  0
    9.3222   -3.4560    1.6841 C   0  0
   11.2738   -2.0132    1.6097 C   0  0
    7.1283   -0.1657    0.0658 C   0  0
   10.6765   -3.2195    1.9666 C   0  0
    6.6874    1.2089   -0.4395 C   0  0
    4.3745    0.2786   -0.4433 N   0  0
   -0.5288    0.0192   -0.8329 C   0  0
    0.6710    0.7345   -0.8105 C   0  0
    4.7466    3.9405   -0.8834 C   0  0
    4.4581    2.5057   -0.7190 C   0  0
    8.5582   -0.1858    0.0756 O   0  0
   -0.5201   -1.3676   -0.6871 C   0  0
    3.1429    2.1352   -0.7667 O   0  0
    8.6978   -4.7784    2.0667 C   0  0
    8.5838   -5.7750    0.9058 C   0  0  1  0  0  0
    9.9175   -6.0813    0.2085 C   0  0
    9.7937   -7.4546   -0.2472 N   0  0
    8.5559   -8.0550    0.1997 C   0  0
    8.1386   -7.1805    1.3723 C   0  0  2  0  0  0
    6.6672   -7.3396    1.6439 C   0  0
    5.8254   -6.4778    1.4419 O   0  0
    6.3609   -8.5557    2.1681 O   0  0
   10.7875   -8.1049   -0.9369 C   0  0
   11.8760   -7.6172   -1.2146 O   0  0
   10.4284   -9.3812   -1.2540 O   0  0
   11.4290  -10.1158   -1.9705 C   0  0
   10.8848  -11.5025   -2.2532 C   0  0
   10.9845   -0.0846    0.7007 H   0  0
    2.8262   -1.8794   -0.3789 H   0  0
    7.5251   -2.6467    0.8186 H   0  0
    0.6842   -3.1255   -0.4098 H   0  0
   12.3226   -1.8355    1.8271 H   0  0
    6.7600   -0.9508   -0.6057 H   0  0
    6.7356   -0.3316    1.0772 H   0  0
   11.2776   -3.9760    2.4659 H   0  0
    7.1298    1.3901   -1.4272 H   0  0
    7.1022    1.9816    0.2200 H   0  0
   -1.4704    0.5462   -0.9618 H   0  0
    0.6412    1.8174   -0.9247 H   0  0
    4.3332    4.3091   -1.8272 H   0  0
    5.8243    4.1292   -0.8884 H   0  0
    4.3039    4.5155   -0.0645 H   0  0
   -1.4551   -1.9216   -0.7006 H   0  0
    9.2787   -5.2227    2.8860 H   0  0
    7.7035   -4.5868    2.4901 H   0  0
    7.8766   -5.3872    0.1592 H   0  0
   10.1140   -5.4222   -0.6432 H   0  0
   10.7726   -6.0385    0.8920 H   0  0
    7.8398   -8.0208   -0.6297 H   0  0
    8.7026   -9.1002    0.4902 H   0  0
    8.6946   -7.4537    2.2792 H   0  0
    7.1053   -9.1701    2.3344 H   0  0
   11.6560   -9.6082   -2.9147 H   0  0
   12.3376  -10.1925   -1.3628 H   0  0
   11.6153  -12.1041   -2.8011 H   0  0
    9.9632  -11.4422   -2.8416 H   0  0
   10.6331  -12.0156   -1.3191 H   0  0
  1  5  2  0
  2  1  1  0
  2 36  1  0
  3  6  1  0
  3 37  1  0
  4  3  2  0
  5  9  1  0
  5 38  1  0
  6 20  2  0
  6 39  1  0
  7  4  1  0
  7 14  2  0
  8 13  1  0
  8 18  2  0
  9 12  2  0
  9 22  1  0
 10  2  2  0
 10 40  1  0
 11 19  1  0
 11 41  1  0
 11 42  1  0
 12 10  1  0
 12 43  1  0
 13 11  1  0
 13 44  1  0
 13 45  1  0
 14  8  1  0
 15 16  2  0
 15 46  1  0
 16  4  1  0
 16 47  1  0
 17 48  1  0
 17 49  1  0
 17 50  1  0
 18 17  1  0
 18 21  1  0
 19  1  1  0
 20 15  1  0
 20 51  1  0
 21  7  1  0
 22 52  1  0
 22 53  1  0
 23 22  1  0
 23 24  1  0
 23 54  1  0
 24 25  1  0
 24 55  1  0
 24 56  1  0
 25 26  1  0
 25 31  1  0
 26 27  1  0
 26 57  1  0
 26 58  1  0
 27 23  1  0
 27 28  1  0
 27 59  1  0
 28 29  2  0
 28 30  1  0
 30 60  1  0
 31 32  2  0
 31 33  1  0
 33 34  1  0
 34 61  1  0
 34 62  1  0
 35 34  1  0
 35 63  1  0
 35 64  1  0
 35 65  1  0
M  END
> <Name>
CHEMBL3398440

> <Clean Energy>
52.711899

> <chembl_id>
CHEMBL3398440

> <chembl_pref_name>
None

> <efficacy>
1.05

> <Forcefield>
MMFF

> <ForcefieldBase>
MMFF

> <ForcefieldFFML>
<?xml version="1.0" encoding="UTF-8"?>
<!DOCTYPE ffml SYSTEM "Ffml.dtd">
<ffml version="1.0">
<forcefield name="MMFF" derivedFrom="MMFF" base="MMFF">
<atomTypes>
<atomType
name="C100"
element="C"
mass="12.011"
annotation=""/>
<atomType
name="N101"
element="N"
mass="14.007"
annotation=""/>
<atomType
name="O102"
element="O"
mass="16"
annotation=""/>
<atomType
name="H103"
element="H"
mass="1.008"
annotation=""/>
</atomTypes>
<parameters>
</parameters>
</forcefield>
</ffml>

> <Initial Potential Energy>
66.96558

> <Initial RMS Gradient>
25.45968

> <Minimization Criteria>
CONJUG> Minimization exiting with gradient tolerance ( 0.0100000) satisfied.

> <CHARMm Energy>
-24.17022

> <Potential Energy>
-24.17022

> <RMS Gradient>
0.00971

> <Bond Energy>
4.98444

> <Angle Energy>
18.72224

> <STRBend>
-0.23461

> <Dihedral Energy>
-2.2547

> <OOPLane>
0.04126

> <Van der Waals Energy>
52.06231

> <Electrostatic Energy>
-97.49116

> <Hydrogen Bond Energy>
0

> <Solvation Free Energy>
0

> <HasGasteigerCharges>
true

> <REMARK99>
REMARK  99  MacroMolecule created from Mol2 file
REMARK  99  CHEMBL3398440
REMARK  99  PROTEIN
REMARK  99  GASTEIGER
REMARK  99
REMARK  99

$$$$
CHEMBL3335658
  SciTegic05292516403D

 55 57  0  0  0  0            999 V2000
    5.8389  -11.9252    0.1298 C   0  0
    5.7357  -13.2130    0.6481 C   0  0
    6.8400  -14.0760    0.6331 C   0  0
    8.0693  -13.6667    0.1020 C   0  0
    8.1629  -12.3488   -0.3914 C   0  0
    7.0531  -11.4894   -0.3924 C   0  0
    9.4350  -11.7770   -0.8934 C   0  0
   10.4459  -11.7421    0.0503 N   0  0
    9.4930  -11.4382   -2.0654 O   0  0
   11.7109  -11.1185   -0.0756 C   0  0
    9.1938  -14.5309    0.0095 N   0  0
    9.3289  -15.7986    0.5516 C   0  0
   10.6256  -16.4900    0.2761 C   0  0
    8.4928  -16.3883    1.2262 O   0  0
   10.6471  -17.8878    0.2938 C   0  0
   11.8390  -18.5817    0.0583 C   0  0
   13.0471  -17.9035   -0.1943 C   0  0
   13.0095  -16.4995   -0.1936 C   0  0
   11.8183  -15.7989    0.0427 C   0  0
   14.3432  -18.6996   -0.4345 C   0  0
   14.1644  -19.6405   -1.6451 C   0  0
   15.5761  -17.8138   -0.7255 C   0  0
   14.6698  -19.5393    0.8190 C   0  0
   12.6862  -11.4845    0.8632 C   0  0
   13.9740  -10.9215    0.8234 C   0  0
   14.2870   -9.9424   -0.1243 C   0  0
   13.3158   -9.5579   -1.0477 C   0  0
   12.0443  -10.1409   -1.0241 C   0  0
   14.9564  -11.3645    1.8413 C   0  0
   16.2190  -11.4493    1.3793 O   0  0
   14.6272  -11.6730    2.9730 O   0  0
   11.1434   -9.6480   -1.8816 F   0  0
    4.9764  -11.2630    0.1377 H   0  0
    4.7873  -13.5593    1.0571 H   0  0
    6.6888  -15.0786    1.0233 H   0  0
    7.1395  -10.4798   -0.7917 H   0  0
   10.2599  -12.2147    0.9301 H   0  0
    9.9519  -14.1956   -0.5723 H   0  0
    9.7357  -18.4495    0.4963 H   0  0
   11.8101  -19.6705    0.0856 H   0  0
   13.9087  -15.9127   -0.3630 H   0  0
   11.8649  -14.7154    0.0683 H   0  0
   15.0851  -20.1991   -1.8512 H   0  0
   13.9079  -19.0756   -2.5492 H   0  0
   13.3730  -20.3805   -1.4835 H   0  0
   16.4697  -18.4254   -0.8985 H   0  0
   15.8030  -17.1469    0.1148 H   0  0
   15.4277  -17.1983   -1.6206 H   0  0
   15.6037  -20.0979    0.6875 H   0  0
   13.8864  -20.2717    1.0427 H   0  0
   14.7851  -18.9000    1.7026 H   0  0
   12.4619  -12.2217    1.6334 H   0  0
   15.2526   -9.4390   -0.1289 H   0  0
   13.5227   -8.7749   -1.7745 H   0  0
   16.3283  -11.3335    0.4174 H   0  0
  1  2  2  0
  1 33  1  0
  2  3  1  0
  2 34  1  0
  3  4  2  0
  3 35  1  0
  4  5  1  0
  4 11  1  0
  5  6  2  0
  5  7  1  0
  6  1  1  0
  6 36  1  0
  7  8  1  0
  7  9  2  0
  8 10  1  0
  8 37  1  0
 10 24  2  0
 11 12  1  0
 11 38  1  0
 12 13  1  0
 12 14  2  0
 13 15  2  0
 15 16  1  0
 15 39  1  0
 16 17  2  0
 16 40  1  0
 17 18  1  0
 17 20  1  0
 18 19  2  0
 18 41  1  0
 19 13  1  0
 19 42  1  0
 20 21  1  0
 20 22  1  0
 20 23  1  0
 21 43  1  0
 21 44  1  0
 21 45  1  0
 22 46  1  0
 22 47  1  0
 22 48  1  0
 23 49  1  0
 23 50  1  0
 23 51  1  0
 24 25  1  0
 24 52  1  0
 25 26  2  0
 25 29  1  0
 26 27  1  0
 26 53  1  0
 27 28  2  0
 27 54  1  0
 28 10  1  0
 28 32  1  0
 29 30  1  0
 29 31  2  0
 30 55  1  0
M  END
> <Name>
CHEMBL3335658

> <Clean Energy>
16.779699

> <chembl_id>
CHEMBL3335658

> <chembl_pref_name>
None

> <efficacy>
6.98005698

> <Forcefield>
MMFF

> <ForcefieldBase>
MMFF

> <ForcefieldFFML>
<?xml version="1.0" encoding="UTF-8"?>
<!DOCTYPE ffml SYSTEM "Ffml.dtd">
<ffml version="1.0">
<forcefield name="MMFF" derivedFrom="MMFF" base="MMFF">
<atomTypes>
<atomType
name="C100"
element="C"
mass="12.011"
annotation=""/>
<atomType
name="N101"
element="N"
mass="14.007"
annotation=""/>
<atomType
name="O102"
element="O"
mass="16"
annotation=""/>
<atomType
name="F103"
element="F"
mass="18.998"
annotation=""/>
<atomType
name="H104"
element="H"
mass="1.008"
annotation=""/>
</atomTypes>
<parameters>
</parameters>
</forcefield>
</ffml>

> <Initial Potential Energy>
231.51485

> <Initial RMS Gradient>
51.27399

> <Minimization Criteria>
STEEPD> Minimization exiting with gradient tolerance ( 3.0000000) satisfied.

> <CHARMm Energy>
96.12037

> <Potential Energy>
96.12037

> <RMS Gradient>
0.09228

> <Bond Energy>
8.71688

> <Angle Energy>
14.44676

> <STRBend>
2.17599

> <Dihedral Energy>
17.66981

> <OOPLane>
0.19492

> <Van der Waals Energy>
71.25592

> <Electrostatic Energy>
-18.33991

> <Hydrogen Bond Energy>
0

> <Solvation Free Energy>
0

> <HasGasteigerCharges>
true

> <REMARK99>
REMARK  99  MacroMolecule created from Mol2 file
REMARK  99  CHEMBL3335658
REMARK  99  PROTEIN
REMARK  99  GASTEIGER
REMARK  99
REMARK  99

$$$$
CHEMBL3764398
  SciTegic05292516403D

 51 52  0  0  0  0            999 V2000
   -2.1055   -2.8491   -1.3844 F   0  0
   -0.8629   -2.6778   -0.8484 C   0  0
    0.0084   -3.0341   -1.8298 F   0  0
    1.7638    1.3892   -0.9141 O   0  0
    0.4264   -0.5131   -0.8049 C   0  0
    0.6670    0.7897   -0.3622 C   0  0
   -0.1942    1.3595    0.5703 C   0  0
   -1.2874    0.6329    1.0473 C   0  0
   -1.5400   -0.6800    0.6080 C   0  0
   -0.6694   -1.2646   -0.3364 C   0  0
   -2.7542   -1.3931    1.1572 C   0  0
   -3.9708   -0.9119    0.5688 N   0  0
   -5.1685   -1.4787    0.9426 C   0  0
   -6.3891   -0.8156    0.4277 C   0  0
   -5.2545   -2.4238    1.7178 O   0  0
   -7.5221   -0.8193    1.2454 C   0  0
   -8.6633   -0.1259    0.8535 C   0  0
   -8.6858    0.5711   -0.3610 C   0  0
   -7.5663    0.5259   -1.2025 C   0  0
   -6.4198   -0.1666   -0.8115 C   0  0
   -9.8943    1.3880   -0.7348 C   0  0
   -9.6860    2.9053   -0.5563 C   0  0  1  0  0  0
  -10.9111    3.6204   -1.0897 C   0  0
   -9.4711    3.3399    0.9068 C   0  0
   -8.0054    3.6001    1.2303 C   0  0
  -10.6601    4.8953   -1.4738 O   0  0
  -12.0322    3.1396   -1.1478 O   0  0
   -0.7370   -3.6127    0.1302 F   0  0
    1.9805    2.7551   -0.5830 C   0  0
    1.1186   -0.9495   -1.5272 H   0  0
   -0.0350    2.3619    0.9544 H   0  0
   -1.9608    1.1014    1.7663 H   0  0
   -2.6962   -2.4768    1.0176 H   0  0
   -2.8094   -1.2337    2.2419 H   0  0
   -3.9437   -0.0842   -0.0085 H   0  0
   -7.5118   -1.3431    2.1996 H   0  0
   -9.5264   -0.1186    1.5144 H   0  0
   -7.5793    1.0345   -2.1642 H   0  0
   -5.5679   -0.2004   -1.4843 H   0  0
  -10.1499    1.1660   -1.7803 H   0  0
  -10.7624    1.0524   -0.1512 H   0  0
   -8.8364    3.2106   -1.1813 H   0  0
  -10.0209    4.2654    1.1207 H   0  0
   -9.8697    2.5890    1.5988 H   0  0
   -7.9028    3.9275    2.2699 H   0  0
   -7.5987    4.3882    0.5883 H   0  0
   -7.3939    2.7039    1.1011 H   0  0
   -9.7238    5.1516   -1.3677 H   0  0
    2.8586    3.0984   -1.1385 H   0  0
    2.1966    2.8716    0.4841 H   0  0
    1.1314    3.3769   -0.8860 H   0  0
  2  1  1  0
  2 28  1  0
  3  2  1  0
  4 29  1  0
  5  6  2  0
  5 30  1  0
  6  4  1  0
  6  7  1  0
  7  8  2  0
  7 31  1  0
  8  9  1  0
  8 32  1  0
  9 10  2  0
  9 11  1  0
 10  2  1  0
 10  5  1  0
 11 12  1  0
 11 33  1  0
 11 34  1  0
 12 13  1  0
 12 35  1  0
 13 14  1  0
 13 15  2  0
 14 16  2  0
 16 17  1  0
 16 36  1  0
 17 18  2  0
 17 37  1  0
 18 19  1  0
 18 21  1  0
 19 20  2  0
 19 38  1  0
 20 14  1  0
 20 39  1  0
 21 22  1  0
 21 40  1  0
 21 41  1  0
 22 23  1  0
 22 24  1  0
 22 42  1  0
 23 26  1  0
 23 27  2  0
 24 25  1  0
 24 43  1  0
 24 44  1  0
 25 45  1  0
 25 46  1  0
 25 47  1  0
 26 48  1  0
 29 49  1  0
 29 50  1  0
 29 51  1  0
M  END
> <Name>
CHEMBL3764398

> <Clean Energy>
28.476

> <chembl_id>
CHEMBL3764398

> <chembl_pref_name>
None

> <efficacy>
1.519468186

> <Forcefield>
MMFF

> <ForcefieldBase>
MMFF

> <ForcefieldFFML>
<?xml version="1.0" encoding="UTF-8"?>
<!DOCTYPE ffml SYSTEM "Ffml.dtd">
<ffml version="1.0">
<forcefield name="MMFF" derivedFrom="MMFF" base="MMFF">
<atomTypes>
<atomType
name="F100"
element="F"
mass="18.998"
annotation=""/>
<atomType
name="C101"
element="C"
mass="12.011"
annotation=""/>
<atomType
name="O102"
element="O"
mass="16"
annotation=""/>
<atomType
name="N103"
element="N"
mass="14.007"
annotation=""/>
<atomType
name="H104"
element="H"
mass="1.008"
annotation=""/>
</atomTypes>
<parameters>
</parameters>
</forcefield>
</ffml>

> <Initial Potential Energy>
98.22377

> <Initial RMS Gradient>
26.28288

> <Minimization Criteria>
STEEPD> Minimization exiting with gradient tolerance ( 3.0000000) satisfied.

> <CHARMm Energy>
23.01333

> <Potential Energy>
23.01333

> <RMS Gradient>
0.03886

> <Bond Energy>
5.12953

> <Angle Energy>
11.17019

> <STRBend>
0.4282

> <Dihedral Energy>
-1.01629

> <OOPLane>
0.20576

> <Van der Waals Energy>
52.85896

> <Electrostatic Energy>
-45.76301

> <Hydrogen Bond Energy>
0

> <Solvation Free Energy>
0

> <HasGasteigerCharges>
true

> <REMARK99>
REMARK  99  MacroMolecule created from Mol2 file
REMARK  99  CHEMBL3764398
REMARK  99  PROTEIN
REMARK  99  GASTEIGER
REMARK  99
REMARK  99

$$$$
CHEMBL3764102
  SciTegic05292516403D

 47 48  0  0  0  0            999 V2000
    3.2635   -0.3359    1.3974 F   0  0
    2.4438    0.6450    0.9193 C   0  0
    3.1260    1.2434   -0.0971 F   0  0
    1.0544   -0.8377   -0.5797 C   0  0
    1.1120    0.0740    0.4844 C   0  0
   -0.0782    0.4255    1.1365 C   0  0
   -1.3033   -0.1097    0.7281 C   0  0
   -1.3586   -1.0221   -0.3320 C   0  0
   -0.1675   -1.3829   -0.9798 C   0  0
   -2.6669   -1.6369   -0.7597 C   0  0
   -2.7817   -3.0043   -0.3339 N   0  0
   -3.8995   -3.7370   -0.6647 C   0  0
   -3.8915   -5.1572   -0.2370 C   0  0
   -4.8344   -3.2882   -1.3168 O   0  0
   -4.5286   -6.1006   -1.0506 C   0  0
   -4.4702   -7.4540   -0.7235 C   0  0
   -3.7795   -7.8721    0.4213 C   0  0
   -3.1915   -6.9166    1.2615 C   0  0
   -3.2484   -5.5629    0.9366 C   0  0
   -3.6274   -9.3407    0.7285 C   0  0
   -2.2084   -9.8551    0.4115 C   0  0  1  0  0  0
   -2.0373  -11.2105    1.0577 C   0  0
   -1.9256   -9.9756   -1.0985 C   0  0
   -1.0424   -8.8466   -1.6140 C   0  0
   -0.7418  -11.5536    1.2473 O   0  0
   -2.9564  -11.9495    1.3727 O   0  0
    2.3555    1.5788    1.9079 F   0  0
    1.9678   -1.1233   -1.1008 H   0  0
   -0.0587    1.1416    1.9590 H   0  0
   -2.2119    0.2153    1.2353 H   0  0
   -0.1912   -2.1056   -1.7953 H   0  0
   -3.5151   -1.0750   -0.3505 H   0  0
   -2.7582   -1.5962   -1.8521 H   0  0
   -1.9945   -3.4328    0.1309 H   0  0
   -5.0427   -5.7781   -1.9531 H   0  0
   -4.9512   -8.1818   -1.3763 H   0  0
   -2.6724   -7.2188    2.1687 H   0  0
   -2.7969   -4.8403    1.6099 H   0  0
   -3.8595   -9.4877    1.7925 H   0  0
   -4.3812   -9.9241    0.1833 H   0  0
   -1.4792   -9.1890    0.8920 H   0  0
   -1.4188  -10.9218   -1.3261 H   0  0
   -2.8606   -9.9901   -1.6708 H   0  0
   -0.8609   -8.9708   -2.6863 H   0  0
   -0.0725   -8.8480   -1.1061 H   0  0
   -1.5066   -7.8685   -1.4635 H   0  0
   -0.1084  -10.8667    0.9602 H   0  0
  2  1  1  0
  2 27  1  0
  3  2  1  0
  4  5  2  0
  4 28  1  0
  5  2  1  0
  5  6  1  0
  6  7  2  0
  6 29  1  0
  7  8  1  0
  7 30  1  0
  8  9  2  0
  8 10  1  0
  9  4  1  0
  9 31  1  0
 10 11  1  0
 10 32  1  0
 10 33  1  0
 11 12  1  0
 11 34  1  0
 12 13  1  0
 12 14  2  0
 13 15  2  0
 15 16  1  0
 15 35  1  0
 16 17  2  0
 16 36  1  0
 17 18  1  0
 17 20  1  0
 18 19  2  0
 18 37  1  0
 19 13  1  0
 19 38  1  0
 20 21  1  0
 20 39  1  0
 20 40  1  0
 21 22  1  0
 21 23  1  0
 21 41  1  0
 22 25  1  0
 22 26  2  0
 23 24  1  0
 23 42  1  0
 23 43  1  0
 24 44  1  0
 24 45  1  0
 24 46  1  0
 25 47  1  0
M  END
> <Name>
CHEMBL3764102

> <Clean Energy>
24.7728

> <chembl_id>
CHEMBL3764102

> <chembl_pref_name>
None

> <efficacy>
1.823361823

> <Forcefield>
MMFF

> <ForcefieldBase>
MMFF

> <ForcefieldFFML>
<?xml version="1.0" encoding="UTF-8"?>
<!DOCTYPE ffml SYSTEM "Ffml.dtd">
<ffml version="1.0">
<forcefield name="MMFF" derivedFrom="MMFF" base="MMFF">
<atomTypes>
<atomType
name="F100"
element="F"
mass="18.998"
annotation=""/>
<atomType
name="C101"
element="C"
mass="12.011"
annotation=""/>
<atomType
name="N102"
element="N"
mass="14.007"
annotation=""/>
<atomType
name="O103"
element="O"
mass="16"
annotation=""/>
<atomType
name="H104"
element="H"
mass="1.008"
annotation=""/>
</atomTypes>
<parameters>
</parameters>
</forcefield>
</ffml>

> <Initial Potential Energy>
96.44867

> <Initial RMS Gradient>
28.09916

> <Minimization Criteria>
CONJUG> Minimization exiting with gradient tolerance ( 0.0100000) satisfied.

> <CHARMm Energy>
23.47251

> <Potential Energy>
23.47251

> <RMS Gradient>
0.00979

> <Bond Energy>
4.72755

> <Angle Energy>
3.99566

> <STRBend>
0.49936

> <Dihedral Energy>
-0.91495

> <OOPLane>
0.09779

> <Van der Waals Energy>
46.04667

> <Electrostatic Energy>
-30.97957

> <Hydrogen Bond Energy>
0

> <Solvation Free Energy>
0

> <HasGasteigerCharges>
true

> <REMARK99>
REMARK  99  MacroMolecule created from Mol2 file
REMARK  99  CHEMBL3764102
REMARK  99  PROTEIN
REMARK  99  GASTEIGER
REMARK  99
REMARK  99

$$$$
CHEMBL3397726
  SciTegic05292516403D

 75 78  0  0  0  0            999 V2000
    1.3881   -2.6524   -3.4241 C   0  0
    2.5561   -2.5905   -2.5194 C   0  0
    2.8339   -3.8071   -1.6835 C   0  0
    1.7768   -4.0029   -0.5910 C   0  0
    2.0923   -5.2249    0.2724 C   0  0
    1.0453   -5.4260    1.3563 C   0  0
    0.3740   -1.9885   -3.2787 O   0  0
    1.5534   -3.5242   -4.4436 O   0  0
    3.2023   -1.4093   -2.5107 C   0  0
    4.4000   -1.0690   -1.7262 C   0  0
    4.3937   -0.0088   -0.7888 C   0  0
    5.5988    0.3482   -0.1653 C   0  0
    6.7746   -0.3630   -0.4194 C   0  0
    6.7515   -1.4515   -1.2830 C   0  0
    5.5921   -1.7758   -1.9771 C   0  0
    3.1865    0.6153   -0.5423 O   0  0
    3.1762    1.6105    0.4917 C   0  0
    1.7957    2.1559    0.8237 C   0  0
    1.6685    3.4899    1.2468 C   0  0
    0.4376    3.9983    1.6806 C   0  0
   -0.7041    3.1868    1.7128 C   0  0
   -0.5740    1.8502    1.2897 C   0  0
    0.6593    1.3408    0.8507 C   0  0
   -2.0295    3.7291    2.2270 C   0  0
   -2.2127    5.0573    1.9694 F   0  0
   -3.0991    3.0867    1.6809 F   0  0
   -2.1596    3.6032    3.5798 F   0  0
    7.8710   -2.2077   -1.4960 O   0  0
    8.1962   -2.9497   -0.3064 C   0  0
    9.5659   -3.6486   -0.4647 C   0  0
    9.8073   -4.5900    0.7131 C   0  0
    9.9671   -5.9656    0.4884 C   0  0
   10.1079   -6.8420    1.5625 C   0  0
   10.1050   -6.3541    2.8672 C   0  0
    9.9805   -4.9895    3.1078 C   0  0
    9.8250   -4.1128    2.0368 C   0  0
   10.7478   -2.7100   -0.7076 C   0  0
   11.7752   -3.1217   -1.5738 C   0  0
   12.8443   -2.2752   -1.8576 C   0  0
   12.9166   -1.0180   -1.2643 C   0  0
   11.9277   -0.6050   -0.3773 C   0  0
   10.8489   -1.4448   -0.1025 C   0  0
    2.8710   -4.6942   -2.3276 H   0  0
    3.8189   -3.7437   -1.2097 H   0  0
    1.7307   -3.1087    0.0437 H   0  0
    0.7854   -4.1263   -1.0444 H   0  0
    2.1375   -6.1226   -0.3552 H   0  0
    3.0762   -5.1062    0.7410 H   0  0
    1.2907   -6.3039    1.9622 H   0  0
    0.0535   -5.5811    0.9197 H   0  0
    0.9966   -4.5574    2.0207 H   0  0
    2.4366   -3.9484   -4.5131 H   0  0
    2.8276   -0.5814   -3.1148 H   0  0
    5.6662    1.1798    0.5284 H   0  0
    7.6990   -0.0649    0.0669 H   0  0
    5.6278   -2.5874   -2.7021 H   0  0
    3.5734    1.1870    1.4233 H   0  0
    3.8057    2.4481    0.1656 H   0  0
    2.5399    4.1430    1.2578 H   0  0
    0.3752    5.0368    2.0023 H   0  0
   -1.4421    1.1908    1.3028 H   0  0
    0.7369    0.2969    0.5455 H   0  0
    8.1902   -2.3059    0.5811 H   0  0
    7.4184   -3.7128   -0.1598 H   0  0
    9.4701   -4.2540   -1.3786 H   0  0
    9.9583   -6.3667   -0.5234 H   0  0
   10.2301   -7.9081    1.3864 H   0  0
   10.2225   -7.0407    3.7015 H   0  0
   10.0163   -4.6164    4.1304 H   0  0
    9.6829   -3.0532    2.2372 H   0  0
   11.7402   -4.1017   -2.0466 H   0  0
   13.6340   -2.5986   -2.5319 H   0  0
   13.7596   -0.3668   -1.4817 H   0  0
   12.0110    0.3685    0.1026 H   0  0
   10.0743   -1.0896    0.5721 H   0  0
  1  2  1  0
  1  7  2  0
  1  8  1  0
  2  3  1  0
  2  9  2  0
  3  4  1  0
  3 43  1  0
  3 44  1  0
  4  5  1  0
  4 45  1  0
  4 46  1  0
  5  6  1  0
  5 47  1  0
  5 48  1  0
  6 49  1  0
  6 50  1  0
  6 51  1  0
  8 52  1  0
  9 10  1  0
  9 53  1  0
 10 11  1  0
 10 15  2  0
 11 12  2  0
 11 16  1  0
 12 13  1  0
 12 54  1  0
 13 14  2  0
 13 55  1  0
 14 15  1  0
 14 28  1  0
 15 56  1  0
 16 17  1  0
 17 18  1  0
 17 57  1  0
 17 58  1  0
 18 19  1  0
 18 23  2  0
 19 20  2  0
 19 59  1  0
 20 21  1  0
 20 60  1  0
 21 22  2  0
 21 24  1  0
 22 23  1  0
 22 61  1  0
 23 62  1  0
 24 25  1  0
 24 26  1  0
 24 27  1  0
 28 29  1  0
 29 30  1  0
 29 63  1  0
 29 64  1  0
 30 31  1  0
 30 37  1  0
 30 65  1  0
 31 32  1  0
 31 36  2  0
 32 33  2  0
 32 66  1  0
 33 34  1  0
 33 67  1  0
 34 35  2  0
 34 68  1  0
 35 36  1  0
 35 69  1  0
 36 70  1  0
 37 38  1  0
 37 42  2  0
 38 39  2  0
 38 71  1  0
 39 40  1  0
 39 72  1  0
 40 41  2  0
 40 73  1  0
 41 42  1  0
 41 74  1  0
 42 75  1  0
M  END
> <Name>
CHEMBL3397726

> <Clean Energy>
39.116901

> <chembl_id>
CHEMBL3397726

> <chembl_pref_name>
None

> <efficacy>
0.921177588

> <Forcefield>
MMFF

> <ForcefieldBase>
MMFF

> <ForcefieldFFML>
<?xml version="1.0" encoding="UTF-8"?>
<!DOCTYPE ffml SYSTEM "Ffml.dtd">
<ffml version="1.0">
<forcefield name="MMFF" derivedFrom="MMFF" base="MMFF">
<atomTypes>
<atomType
name="C100"
element="C"
mass="12.011"
annotation=""/>
<atomType
name="O101"
element="O"
mass="16"
annotation=""/>
<atomType
name="F102"
element="F"
mass="18.998"
annotation=""/>
<atomType
name="H103"
element="H"
mass="1.008"
annotation=""/>
</atomTypes>
<parameters>
</parameters>
</forcefield>
</ffml>

> <Initial Potential Energy>
321.01222

> <Initial RMS Gradient>
38.33898

> <Minimization Criteria>
CONJUG> Minimization exiting with gradient tolerance ( 0.0100000) satisfied.

> <CHARMm Energy>
122.90285

> <Potential Energy>
122.90285

> <RMS Gradient>
0.00864

> <Bond Energy>
10.05335

> <Angle Energy>
14.37731

> <STRBend>
0.85755

> <Dihedral Energy>
13.6823

> <OOPLane>
0.14884

> <Van der Waals Energy>
82.84591

> <Electrostatic Energy>
0.9376

> <Hydrogen Bond Energy>
0

> <Solvation Free Energy>
0

> <HasGasteigerCharges>
true

> <REMARK99>
REMARK  99  MacroMolecule created from Mol2 file
REMARK  99  CHEMBL3397726
REMARK  99  PROTEIN
REMARK  99  GASTEIGER
REMARK  99
REMARK  99

$$$$
CHEMBL4164442
  SciTegic05292516403D

 49 52  0  0  0  0            999 V2000
    0.8558   -9.0958   -0.9294 C   0  0
    2.0580   -8.9483   -1.5821 O   0  0
    3.1944   -8.7173   -0.8300 C   0  0
    4.3893   -9.2226   -1.3685 C   0  0
    4.3988   -7.7127    1.0283 C   0  0
    3.2004   -7.9593    0.3444 C   0  0
    5.5995   -8.2167    0.5052 C   0  0
    5.5802   -8.9536   -0.6751 C   0  0
    6.9049   -9.2574   -0.9014 N   0  0
    7.6578   -8.7031    0.1150 C   0  0
    6.8778   -8.0803    0.9803 N   0  0
    7.4242  -10.0106   -2.0185 C   0  0
    9.1543   -8.7403    0.1781 C   0  0
    9.5661  -10.1098    0.2058 O   0  0
   10.9088  -10.3510    0.3078 C   0  0
   11.2532  -11.7031    0.4133 C   0  0
   12.5890  -12.0999    0.5096 C   0  0
   13.5987  -11.1408    0.5081 C   0  0
   13.2586   -9.7863    0.4198 C   0  0
   11.9186   -9.3895    0.3052 C   0  0
   -0.2312   -8.3426   -1.3731 C   0  0
   -1.4855   -8.4899   -0.7886 C   0  0
   -1.6616   -9.4104    0.2461 C   0  0
   -0.5825  -10.1851    0.6980 C   0  0
    0.6739  -10.0373    0.0893 C   0  0
   14.3022   -8.7378    0.4018 C   0  0
   15.2692   -8.9397    1.3205 O   0  0
   14.2596   -7.7763   -0.3444 O   0  0
   -0.0844   -7.4626   -2.3746 F   0  0
   -0.7879  -11.2109    1.7745 C   0  0
    4.3785   -9.7831   -2.2970 H   0  0
    4.4107   -7.1194    1.9363 H   0  0
    2.2826   -7.5315    0.7377 H   0  0
    8.3342   -9.5301   -2.3856 H   0  0
    6.6893  -10.0332   -2.8260 H   0  0
    7.6349  -11.0268   -1.6765 H   0  0
    9.5639   -8.2304   -0.7018 H   0  0
    9.4836   -8.2296    1.0911 H   0  0
   10.4706  -12.4593    0.4146 H   0  0
   12.8370  -13.1570    0.5730 H   0  0
   14.6381  -11.4579    0.5452 H   0  0
   11.7045   -8.3283    0.2147 H   0  0
   -2.3213   -7.8961   -1.1481 H   0  0
   -2.6492   -9.5273    0.6909 H   0  0
    1.5087  -10.6592    0.4047 H   0  0
   15.0766   -9.6522    1.9589 H   0  0
    0.1297  -11.3571    2.3541 H   0  0
   -1.0817  -12.1663    1.3294 H   0  0
   -1.5666  -10.8911    2.4748 H   0  0
  1  2  1  0
  1 21  2  0
  2  3  1  0
  3  4  2  0
  4  8  1  0
  4 31  1  0
  5  6  2  0
  5 32  1  0
  6  3  1  0
  6 33  1  0
  7  5  1  0
  7  8  2  0
  8  9  1  0
  9 10  1  0
  9 12  1  0
 10 11  2  0
 10 13  1  0
 11  7  1  0
 12 34  1  0
 12 35  1  0
 12 36  1  0
 13 14  1  0
 13 37  1  0
 13 38  1  0
 14 15  1  0
 15 16  2  0
 16 17  1  0
 16 39  1  0
 17 18  2  0
 17 40  1  0
 18 19  1  0
 18 41  1  0
 19 20  2  0
 19 26  1  0
 20 15  1  0
 20 42  1  0
 21 22  1  0
 21 29  1  0
 22 23  2  0
 22 43  1  0
 23 24  1  0
 23 44  1  0
 24 25  2  0
 24 30  1  0
 25  1  1  0
 25 45  1  0
 26 27  1  0
 26 28  2  0
 27 46  1  0
 30 47  1  0
 30 48  1  0
 30 49  1  0
M  END
> <Name>
CHEMBL4164442

> <Clean Energy>
41.740398

> <chembl_id>
CHEMBL4164442

> <chembl_pref_name>
None

> <efficacy>
1.11

> <Forcefield>
MMFF

> <ForcefieldBase>
MMFF

> <ForcefieldFFML>
<?xml version="1.0" encoding="UTF-8"?>
<!DOCTYPE ffml SYSTEM "Ffml.dtd">
<ffml version="1.0">
<forcefield name="MMFF" derivedFrom="MMFF" base="MMFF">
<atomTypes>
<atomType
name="C100"
element="C"
mass="12.011"
annotation=""/>
<atomType
name="O101"
element="O"
mass="16"
annotation=""/>
<atomType
name="N102"
element="N"
mass="14.007"
annotation=""/>
<atomType
name="F103"
element="F"
mass="18.998"
annotation=""/>
<atomType
name="H104"
element="H"
mass="1.008"
annotation=""/>
</atomTypes>
<parameters>
</parameters>
</forcefield>
</ffml>

> <Initial Potential Energy>
167.13755

> <Initial RMS Gradient>
34.05233

> <Minimization Criteria>
CONJUG> Minimization exiting with gradient tolerance ( 0.0100000) satisfied.

> <CHARMm Energy>
76.30303

> <Potential Energy>
76.30303

> <RMS Gradient>
0.00976

> <Bond Energy>
5.20144

> <Angle Energy>
16.58143

> <STRBend>
0.04219

> <Dihedral Energy>
9.70964

> <OOPLane>
0.18092

> <Van der Waals Energy>
57.83207

> <Electrostatic Energy>
-13.24467

> <Hydrogen Bond Energy>
0

> <Solvation Free Energy>
0

> <HasGasteigerCharges>
true

> <REMARK99>
REMARK  99  MacroMolecule created from Mol2 file
REMARK  99  CHEMBL4164442
REMARK  99  PROTEIN
REMARK  99  GASTEIGER
REMARK  99
REMARK  99

$$$$
CHEMBL4176819
  SciTegic05292516403D

 54 57  0  0  0  0            999 V2000
   15.4631  -30.4143   -0.1200 C   0  0
   16.4030  -31.4216   -0.1963 O   0  0
   17.6953  -30.9881   -0.4261 C   0  0
   18.6724  -31.3481    0.5135 C   0  0
   19.2798  -29.6953   -1.7263 C   0  0
   17.9987  -30.2139   -1.5526 C   0  0
   20.2497  -29.9712   -0.7539 C   0  0
   19.9493  -30.8028    0.3248 C   0  0
   21.1375  -30.8769    1.0189 N   0  0
   22.0351  -30.0155    0.4228 C   0  0
   21.5286  -29.4995   -0.6785 N   0  0
   21.4114  -31.6985    2.1752 C   0  0
   23.3815  -29.6840    0.9651 C   0  0
   24.2483  -30.7685    0.6236 O   0  0
   25.5286  -30.4177    0.2912 C   0  0
   26.1453  -31.2313   -0.6629 C   0  0
   27.4477  -30.9608   -1.0891 C   0  0
   28.1358  -29.8679   -0.5575 C   0  0
   27.5423  -29.0785    0.4360 C   0  0
   26.2389  -29.3587    0.8628 C   0  0
   15.6333  -29.3040    0.7073 C   0  0
   14.6835  -28.2727    0.7173 C   0  0
   13.5326  -28.3752   -0.0922 C   0  0
   13.3535  -29.5175   -0.9071 C   0  0
   14.3194  -30.5374   -0.9003 C   0  0
   12.6369  -27.3168   -0.1669 N   0  0
   14.9305  -27.0688    1.5855 C   0  0
   12.1481  -29.6710   -1.7985 C   0  0
   29.5053  -29.5847   -1.0422 C   0  0
   30.3453  -30.4467   -1.2275 O   0  0
   29.7122  -28.2719   -1.2887 O   0  0
   18.4104  -31.9692    1.3647 H   0  0
   19.5389  -29.0673   -2.5711 H   0  0
   17.2253  -29.9823   -2.2812 H   0  0
   21.4636  -31.0487    3.0522 H   0  0
   22.3594  -32.2199    2.0228 H   0  0
   20.6154  -32.4353    2.3034 H   0  0
   23.7026  -28.7353    0.5161 H   0  0
   23.3564  -29.5690    2.0538 H   0  0
   25.5989  -32.0705   -1.0881 H   0  0
   27.9191  -31.5965   -1.8362 H   0  0
   28.0980  -28.2667    0.9017 H   0  0
   25.8044  -28.7504    1.6507 H   0  0
   16.5238  -29.2269    1.3263 H   0  0
   14.1982  -31.4174   -1.5264 H   0  0
   12.6222  -26.5833    0.5281 H   0  0
   11.7929  -27.4055   -0.7187 H   0  0
   14.1179  -26.9493    2.3094 H   0  0
   15.0101  -26.1665    0.9706 H   0  0
   15.8627  -27.1640    2.1527 H   0  0
   12.1531  -30.6338   -2.3206 H   0  0
   12.1357  -28.8828   -2.5581 H   0  0
   11.2289  -29.6259   -1.2056 H   0  0
   28.8931  -27.7395   -1.2805 H   0  0
  1  2  1  0
  1 21  2  0
  2  3  1  0
  3  4  2  0
  4  8  1  0
  4 32  1  0
  5  6  2  0
  5 33  1  0
  6  3  1  0
  6 34  1  0
  7  5  1  0
  7  8  2  0
  8  9  1  0
  9 10  1  0
  9 12  1  0
 10 11  2  0
 10 13  1  0
 11  7  1  0
 12 35  1  0
 12 36  1  0
 12 37  1  0
 13 14  1  0
 13 38  1  0
 13 39  1  0
 14 15  1  0
 15 16  2  0
 16 17  1  0
 16 40  1  0
 17 18  2  0
 17 41  1  0
 18 19  1  0
 18 29  1  0
 19 20  2  0
 19 42  1  0
 20 15  1  0
 20 43  1  0
 21 22  1  0
 21 44  1  0
 22 23  2  0
 22 27  1  0
 23 24  1  0
 23 26  1  0
 24 25  2  0
 24 28  1  0
 25  1  1  0
 25 45  1  0
 26 46  1  0
 26 47  1  0
 27 48  1  0
 27 49  1  0
 27 50  1  0
 28 51  1  0
 28 52  1  0
 28 53  1  0
 29 30  2  0
 29 31  1  0
 31 54  1  0
M  END
> <Name>
CHEMBL4176819

> <Clean Energy>
29.656601

> <chembl_id>
CHEMBL4176819

> <chembl_pref_name>
None

> <efficacy>
0.91

> <Forcefield>
MMFF

> <ForcefieldBase>
MMFF

> <ForcefieldFFML>
<?xml version="1.0" encoding="UTF-8"?>
<!DOCTYPE ffml SYSTEM "Ffml.dtd">
<ffml version="1.0">
<forcefield name="MMFF" derivedFrom="MMFF" base="MMFF">
<atomTypes>
<atomType
name="C100"
element="C"
mass="12.011"
annotation=""/>
<atomType
name="O101"
element="O"
mass="16"
annotation=""/>
<atomType
name="N102"
element="N"
mass="14.007"
annotation=""/>
<atomType
name="H103"
element="H"
mass="1.008"
annotation=""/>
</atomTypes>
<parameters>
</parameters>
</forcefield>
</ffml>

> <Initial Potential Energy>
208.40573

> <Initial RMS Gradient>
42.16253

> <Minimization Criteria>
CONJUG> Minimization exiting with gradient tolerance ( 0.0100000) satisfied.

> <CHARMm Energy>
68.10243

> <Potential Energy>
68.10243

> <RMS Gradient>
0.0086

> <Bond Energy>
5.80105

> <Angle Energy>
16.8518

> <STRBend>
-0.04683

> <Dihedral Energy>
23.94957

> <OOPLane>
0.70697

> <Van der Waals Energy>
63.26898

> <Electrostatic Energy>
-42.42912

> <Hydrogen Bond Energy>
0

> <Solvation Free Energy>
0

> <HasGasteigerCharges>
true

> <REMARK99>
REMARK  99  MacroMolecule created from Mol2 file
REMARK  99  CHEMBL4176819
REMARK  99  PROTEIN
REMARK  99  GASTEIGER
REMARK  99
REMARK  99

$$$$
CHEMBL491751
  SciTegic05292516403D

 63 67  0  0  0  0            999 V2000
   -3.5739    0.2201   -0.1157 C   0  0
    1.6659    1.8889   -1.5105 C   0  0
    0.3695    1.3760   -1.5565 C   0  0
   -0.0045    0.3577   -0.6818 C   0  0
    2.5901    1.3845   -0.5947 C   0  0
    2.2413    0.3305    0.2618 C   0  0
    0.9351   -0.1832    0.1976 C   0  0
    3.2283   -0.2091    1.2668 C   0  0
    3.7736   -1.4804    0.7119 C   0  0
    4.8271   -1.6922   -0.2134 C   0  0
   -5.5808    6.6711    1.1111 C   0  0
   -5.2133    5.3431    0.8847 C   0  0
    5.6059   -0.7065   -1.0019 C   0  0
    4.7089   -5.8134   -0.2315 C   0  0
   -6.8408   -0.1514   -0.9484 C   0  0
   -6.0286    0.9922   -0.4955 C   0  0
   -4.7066    1.1823   -0.1479 C   0  0
   -4.5176    2.4974    0.2213 N   0  0
   -5.7051    3.0549    0.0755 C   0  0
   -6.6737    2.1909   -0.3654 O   0  0
   -6.1170    4.4356    0.3120 C   0  0
   -7.4002    4.8918   -0.0259 C   0  0
   -7.7694    6.2203    0.1996 C   0  0
   -6.8585    7.1080    0.7672 C   0  0
   -2.3145    0.7864   -0.7657 C   0  0
   -1.2631   -0.1801   -0.6280 O   0  0
    5.0439   -3.0077   -0.3598 N   0  0
    4.0741   -3.5502    0.4314 N   0  0
    3.2907   -2.6662    1.1095 N   0  0
    3.9034   -4.9563    0.5332 C   0  0
    2.9310   -5.4940    1.3888 C   0  0
    2.7606   -6.8775    1.4702 C   0  0
    3.5578   -7.7222    0.6994 C   0  0
    4.5307   -7.1937   -0.1473 C   0  0
    6.5424    0.1140   -0.1588 C   0  0
    6.7583    0.0386    1.0386 O   0  0
    7.2205    1.0126   -0.9093 O   0  0
   -3.3602   -0.0482    0.9264 H   0  0
   -3.8488   -0.7169   -0.6149 H   0  0
    1.9535    2.6935   -2.1827 H   0  0
   -0.3314    1.7847   -2.2775 H   0  0
    3.5786    1.8354   -0.5519 H   0  0
    0.6322   -0.9897    0.8625 H   0  0
    4.0302    0.5141    1.4513 H   0  0
    2.7306   -0.3739    2.2301 H   0  0
   -4.8753    7.3677    1.5564 H   0  0
   -4.2134    5.0106    1.1596 H   0  0
    6.2095   -1.2257   -1.7561 H   0  0
    4.9243   -0.0322   -1.5276 H   0  0
    5.4774   -5.4237   -0.8962 H   0  0
   -7.9107    0.0659   -0.8697 H   0  0
   -6.6312   -1.0381   -0.3421 H   0  0
   -6.6151   -0.3863   -1.9929 H   0  0
   -8.1225    4.2136   -0.4747 H   0  0
   -8.7652    6.5594   -0.0710 H   0  0
   -7.1407    8.1419    0.9420 H   0  0
   -2.4956    0.9735   -1.8314 H   0  0
   -2.0391    1.7308   -0.2772 H   0  0
    2.3027   -4.8464    1.9967 H   0  0
    2.0113   -7.3012    2.1356 H   0  0
    3.4313   -8.8005    0.7658 H   0  0
    5.1590   -7.8610   -0.7343 H   0  0
    7.8674    1.4393   -0.3030 H   0  0
  1 17  1  0
  1 25  1  0
  1 38  1  0
  1 39  1  0
  2  5  1  0
  2 40  1  0
  3  2  2  0
  3 41  1  0
  4  3  1  0
  4  7  2  0
  4 26  1  0
  5  6  2  0
  5 42  1  0
  6  7  1  0
  6  8  1  0
  7 43  1  0
  8  9  1  0
  8 44  1  0
  8 45  1  0
  9 10  1  0
  9 29  2  0
 10 13  1  0
 10 27  2  0
 11 12  1  0
 11 46  1  0
 12 21  2  0
 12 47  1  0
 13 35  1  0
 13 48  1  0
 13 49  1  0
 14 50  1  0
 15 16  1  0
 15 51  1  0
 15 52  1  0
 15 53  1  0
 16 17  2  0
 16 20  1  0
 17 18  1  0
 19 18  2  0
 19 20  1  0
 19 21  1  0
 21 22  1  0
 22 23  2  0
 22 54  1  0
 23 55  1  0
 24 11  2  0
 24 23  1  0
 24 56  1  0
 25 26  1  0
 25 57  1  0
 25 58  1  0
 27 28  1  0
 28 29  1  0
 30 14  2  0
 30 28  1  0
 30 31  1  0
 31 32  2  0
 31 59  1  0
 32 33  1  0
 32 60  1  0
 33 34  2  0
 33 61  1  0
 34 14  1  0
 34 62  1  0
 35 36  2  0
 35 37  1  0
 37 63  1  0
M  END
> <Name>
CHEMBL491751

> <Clean Energy>
49.524799

> <chembl_id>
CHEMBL491751

> <chembl_pref_name>
None

> <efficacy>
1.38

> <Forcefield>
MMFF

> <ForcefieldBase>
MMFF

> <ForcefieldFFML>
<?xml version="1.0" encoding="UTF-8"?>
<!DOCTYPE ffml SYSTEM "Ffml.dtd">
<ffml version="1.0">
<forcefield name="MMFF" derivedFrom="MMFF" base="MMFF">
<atomTypes>
<atomType
name="C100"
element="C"
mass="12.011"
annotation=""/>
<atomType
name="N101"
element="N"
mass="14.007"
annotation=""/>
<atomType
name="O102"
element="O"
mass="16"
annotation=""/>
<atomType
name="H103"
element="H"
mass="1.008"
annotation=""/>
</atomTypes>
<parameters>
</parameters>
</forcefield>
</ffml>

> <Initial Potential Energy>
220.10905

> <Initial RMS Gradient>
33.91851

> <Minimization Criteria>
STEEPD> Minimization exiting with gradient tolerance ( 3.0000000) satisfied.

> <CHARMm Energy>
96.1697

> <Potential Energy>
96.1697

> <RMS Gradient>
0.10275

> <Bond Energy>
6.00842

> <Angle Energy>
10.47195

> <STRBend>
0.74422

> <Dihedral Energy>
3.71761

> <OOPLane>
0.05446

> <Van der Waals Energy>
60.72858

> <Electrostatic Energy>
14.44447

> <Hydrogen Bond Energy>
0

> <Solvation Free Energy>
0

> <HasGasteigerCharges>
true

> <REMARK99>
REMARK  99  MacroMolecule created from Mol2 file
REMARK  99  CHEMBL491751
REMARK  99  PROTEIN
REMARK  99  GASTEIGER
REMARK  99
REMARK  99

$$$$
CHEMBL3397718
  SciTegic05292516403D

 61 63  0  0  0  0            999 V2000
    1.4711   -3.1288   -2.5501 C   0  0
    2.7578   -2.8721   -1.8467 C   0  0
    3.3418   -3.9758   -1.0056 C   0  0
    2.3693   -4.4767    0.0701 C   0  0
    3.0161   -5.5551    0.9411 C   0  0
    2.0569   -6.0593    2.0075 C   0  0
    0.5103   -2.3737   -2.5204 O   0  0
    1.4417   -4.2863   -3.2513 O   0  0
    3.2207   -1.6091   -1.9674 C   0  0
    4.4427   -1.0164   -1.3769 C   0  0
    4.3784    0.2163   -0.6755 C   0  0
    5.5702    0.7990   -0.2138 C   0  0
    6.8056    0.1785   -0.4278 C   0  0
    6.8618   -1.0361   -1.0962 C   0  0
    5.6999   -1.6228   -1.6002 C   0  0
    3.1258    0.7671   -0.4707 O   0  0
    3.0741    2.1074    0.0426 C   0  0
    1.6657    2.6117    0.3142 C   0  0
    1.3209    3.9342   -0.0064 C   0  0
    0.0835    4.4720    0.3746 C   0  0
   -0.8448    3.7057    1.0920 C   0  0
   -0.5027    2.3754    1.4003 C   0  0
    0.7374    1.8355    1.0188 C   0  0
   -2.1747    4.2915    1.5449 C   0  0
   -2.4806    5.4905    0.9684 F   0  0
   -3.2145    3.4581    1.2637 F   0  0
   -2.2189    4.5152    2.8904 F   0  0
    8.0956   -1.5974   -1.2855 O   0  0
    8.2851   -2.7293   -0.4246 C   0  0
    9.9766   -3.3096    1.3398 C   0  0
    9.7110   -2.8059    0.0691 C   0  0
   10.8171   -2.4527   -0.7131 C   0  0
   12.1089   -2.5964   -0.2019 C   0  0
   12.2583   -3.1033    1.0791 C   0  0
   11.2180   -3.4651    1.8606 N   0  0
    3.6469   -4.8079   -1.6509 H   0  0
    4.2534   -3.6409   -0.5003 H   0  0
    2.0528   -3.6370    0.7018 H   0  0
    1.4656   -4.8867   -0.3968 H   0  0
    3.3337   -6.3974    0.3156 H   0  0
    3.9135   -5.1540    1.4262 H   0  0
    2.5399   -6.8283    2.6185 H   0  0
    1.1619   -6.4977    1.5547 H   0  0
    1.7440   -5.2459    2.6699 H   0  0
    2.2799   -4.7931   -3.3032 H   0  0
    2.6350   -0.8849   -2.5415 H   0  0
    5.5826    1.7414    0.3236 H   0  0
    7.7197    0.6429   -0.0654 H   0  0
    5.7854   -2.5397   -2.1810 H   0  0
    3.5988    2.1618    1.0046 H   0  0
    3.5639    2.7735   -0.6787 H   0  0
    2.0218    4.5733   -0.5410 H   0  0
   -0.1442    5.5053    0.1156 H   0  0
   -1.2066    1.7528    1.9526 H   0  0
    0.9929    0.8114    1.2934 H   0  0
    7.6084   -2.6914    0.4409 H   0  0
    8.0623   -3.6384   -0.9960 H   0  0
    9.1737   -3.6189    2.0049 H   0  0
   10.6714   -2.0624   -1.7180 H   0  0
   12.9887   -2.3253   -0.7812 H   0  0
   13.2402   -3.2362    1.5209 H   0  0
  1  2  1  0
  1  7  2  0
  1  8  1  0
  2  3  1  0
  2  9  2  0
  3  4  1  0
  3 36  1  0
  3 37  1  0
  4  5  1  0
  4 38  1  0
  4 39  1  0
  5  6  1  0
  5 40  1  0
  5 41  1  0
  6 42  1  0
  6 43  1  0
  6 44  1  0
  8 45  1  0
  9 10  1  0
  9 46  1  0
 10 11  1  0
 10 15  2  0
 11 12  2  0
 11 16  1  0
 12 13  1  0
 12 47  1  0
 13 14  2  0
 13 48  1  0
 14 15  1  0
 14 28  1  0
 15 49  1  0
 16 17  1  0
 17 18  1  0
 17 50  1  0
 17 51  1  0
 18 19  1  0
 18 23  2  0
 19 20  2  0
 19 52  1  0
 20 21  1  0
 20 53  1  0
 21 22  2  0
 21 24  1  0
 22 23  1  0
 22 54  1  0
 23 55  1  0
 24 25  1  0
 24 26  1  0
 24 27  1  0
 28 29  1  0
 29 31  1  0
 29 56  1  0
 29 57  1  0
 30 31  1  0
 30 35  2  0
 30 58  1  0
 31 32  2  0
 32 33  1  0
 32 59  1  0
 33 34  2  0
 33 60  1  0
 34 35  1  0
 34 61  1  0
M  END
> <Name>
CHEMBL3397718

> <Clean Energy>
21.625401

> <chembl_id>
CHEMBL3397718

> <chembl_pref_name>
None

> <efficacy>
1.13960114

> <Forcefield>
MMFF

> <ForcefieldBase>
MMFF

> <ForcefieldFFML>
<?xml version="1.0" encoding="UTF-8"?>
<!DOCTYPE ffml SYSTEM "Ffml.dtd">
<ffml version="1.0">
<forcefield name="MMFF" derivedFrom="MMFF" base="MMFF">
<atomTypes>
<atomType
name="C100"
element="C"
mass="12.011"
annotation=""/>
<atomType
name="O101"
element="O"
mass="16"
annotation=""/>
<atomType
name="F102"
element="F"
mass="18.998"
annotation=""/>
<atomType
name="N103"
element="N"
mass="14.007"
annotation=""/>
<atomType
name="H104"
element="H"
mass="1.008"
annotation=""/>
</atomTypes>
<parameters>
</parameters>
</forcefield>
</ffml>

> <Initial Potential Energy>
190.11726

> <Initial RMS Gradient>
28.88465

> <Minimization Criteria>
CONJUG> Minimization exiting with gradient tolerance ( 0.0100000) satisfied.

> <CHARMm Energy>
77.99115

> <Potential Energy>
77.99115

> <RMS Gradient>
0.00979

> <Bond Energy>
7.86329

> <Angle Energy>
14.90023

> <STRBend>
1.58333

> <Dihedral Energy>
9.83133

> <OOPLane>
0.22321

> <Van der Waals Energy>
64.70125

> <Electrostatic Energy>
-21.11148

> <Hydrogen Bond Energy>
0

> <Solvation Free Energy>
0

> <HasGasteigerCharges>
true

> <REMARK99>
REMARK  99  MacroMolecule created from Mol2 file
REMARK  99  CHEMBL3397718
REMARK  99  PROTEIN
REMARK  99  GASTEIGER
REMARK  99
REMARK  99

$$$$
CHEMBL247720
  SciTegic05292516403D

 65 69  0  0  0  0            999 V2000
    5.3041   -8.9263    0.7325 C   0  0
    6.2753   -9.1435   -0.2756 C   0  0
    7.0525   -8.0543   -0.7098 C   0  0
    5.0746   -7.6538    1.2660 C   0  0
   -9.8760  -13.0628   -0.1055 C   0  0
   -8.5385  -12.7376    0.1281 C   0  0
   -8.0984  -11.4055    0.0699 C   0  0
   -9.0353  -10.4049   -0.2271 C   0  0
  -10.3741  -10.7287   -0.4610 C   0  0
  -10.7913  -12.0565   -0.4014 C   0  0
   -6.6927  -11.0995    0.3151 C   0  0
   -5.6906  -11.9162    0.5907 N   0  0
   -4.5845  -11.0930    0.7118 C   0  0
   -4.9767   -9.7852    0.5151 C   0  0
   -6.3148   -9.7819    0.2417 O   0  0
   -4.3046   -8.4749    0.5436 C   0  0
   -3.2482  -11.6450    1.0792 C   0  0
   -2.1436  -11.4171    0.0448 C   0  0
   -0.9476  -11.9899    0.5858 O   0  0
    0.2487  -11.7597   -0.0285 C   0  0
    1.3477  -12.3363    0.6120 C   0  0
    2.6502  -12.1677    0.1217 C   0  0
    2.8926  -11.4021   -1.0243 C   0  0
    1.7740  -10.8478   -1.6767 C   0  0
    0.4664  -11.0244   -1.1875 C   0  0
    4.2797  -11.1351   -1.6059 C   0  0
    5.4165  -11.4714   -0.7087 N   0  0
    6.5416  -10.5193   -0.8690 C   0  0
    5.8746  -12.8672   -0.9677 C   0  0
    6.4189  -13.4624    0.3311 C   0  0
    7.0720  -14.4907    0.4023 O   0  0
    6.0350  -12.7469    1.4214 O   0  0
    5.8465   -6.6169    0.8000 C   0  0
    6.8144   -6.8119   -0.1556 C   0  0
    7.4659   -5.6611   -0.4738 O   0  0
    6.8070   -4.7256    0.4066 C   0  0
    5.7516   -5.3204    1.1926 O   0  0
    4.6824   -9.7436    1.0952 H   0  0
    7.8273   -8.1689   -1.4621 H   0  0
    4.2990   -7.4943    2.0085 H   0  0
  -10.2005  -14.0991   -0.0576 H   0  0
   -7.8299  -13.5320    0.3584 H   0  0
   -8.7287   -9.3625   -0.2781 H   0  0
  -11.0889   -9.9432   -0.6902 H   0  0
  -11.8310  -12.3088   -0.5861 H   0  0
   -4.9769   -7.6982    0.9209 H   0  0
   -3.9828   -8.1921   -0.4634 H   0  0
   -3.4228   -8.5000    1.1908 H   0  0
   -2.9374  -11.2091    2.0381 H   0  0
   -3.3383  -12.7224    1.2704 H   0  0
   -2.3926  -11.9077   -0.9035 H   0  0
   -2.0080  -10.3425   -0.1229 H   0  0
    1.1895  -12.9245    1.5141 H   0  0
    3.4547  -12.6466    0.6690 H   0  0
    1.9125  -10.2531   -2.5789 H   0  0
   -0.3515  -10.5688   -1.7350 H   0  0
    4.3741  -11.6560   -2.5680 H   0  0
    4.2978  -10.0632   -1.8420 H   0  0
    7.4273  -10.9040   -0.3473 H   0  0
    6.8004  -10.4224   -1.9318 H   0  0
    5.0375  -13.5126   -1.2587 H   0  0
    6.6429  -12.9033   -1.7475 H   0  0
    5.5001  -11.9856    1.0871 H   0  0
    7.5538   -4.2965    1.0851 H   0  0
    6.3774   -3.9197   -0.1997 H   0  0
  1  2  1  0
  1 38  1  0
  2  3  2  0
  3 34  1  0
  3 39  1  0
  4  1  2  0
  4 40  1  0
  5  6  2  0
  5 41  1  0
  6  7  1  0
  6 42  1  0
  7  8  2  0
  7 11  1  0
  8  9  1  0
  8 43  1  0
  9 10  2  0
  9 44  1  0
 10  5  1  0
 10 45  1  0
 11 12  2  0
 12 13  1  0
 13 14  2  0
 13 17  1  0
 14 15  1  0
 14 16  1  0
 15 11  1  0
 16 46  1  0
 16 47  1  0
 16 48  1  0
 17 18  1  0
 17 49  1  0
 17 50  1  0
 18 19  1  0
 18 51  1  0
 18 52  1  0
 19 20  1  0
 20 21  2  0
 21 22  1  0
 21 53  1  0
 22 23  2  0
 22 54  1  0
 23 24  1  0
 23 26  1  0
 24 25  2  0
 24 55  1  0
 25 20  1  0
 25 56  1  0
 26 27  1  0
 26 57  1  0
 26 58  1  0
 27 28  1  0
 27 29  1  0
 28  2  1  0
 28 59  1  0
 28 60  1  0
 29 30  1  0
 29 61  1  0
 29 62  1  0
 30 31  2  0
 30 32  1  0
 32 63  1  0
 33  4  1  0
 33 34  2  0
 34 35  1  0
 35 36  1  0
 36 37  1  0
 36 64  1  0
 36 65  1  0
 37 33  1  0
M  END
> <Name>
CHEMBL247720

> <Clean Energy>
51.587299

> <chembl_id>
CHEMBL247720

> <chembl_pref_name>
None

> <efficacy>
1.06

> <Forcefield>
MMFF

> <ForcefieldBase>
MMFF

> <ForcefieldFFML>
<?xml version="1.0" encoding="UTF-8"?>
<!DOCTYPE ffml SYSTEM "Ffml.dtd">
<ffml version="1.0">
<forcefield name="MMFF" derivedFrom="MMFF" base="MMFF">
<atomTypes>
<atomType
name="C100"
element="C"
mass="12.011"
annotation=""/>
<atomType
name="N101"
element="N"
mass="14.007"
annotation=""/>
<atomType
name="O102"
element="O"
mass="16"
annotation=""/>
<atomType
name="H103"
element="H"
mass="1.008"
annotation=""/>
</atomTypes>
<parameters>
</parameters>
</forcefield>
</ffml>

> <Initial Potential Energy>
240.71527

> <Initial RMS Gradient>
32.95343

> <Minimization Criteria>
STEEPD> Minimization exiting with gradient tolerance ( 3.0000000) satisfied.

> <CHARMm Energy>
92.91822

> <Potential Energy>
92.91822

> <RMS Gradient>
0.14032

> <Bond Energy>
8.74322

> <Angle Energy>
19.25355

> <STRBend>
0.70043

> <Dihedral Energy>
0.35653

> <OOPLane>
0.11228

> <Van der Waals Energy>
67.52735

> <Electrostatic Energy>
-3.77514

> <Hydrogen Bond Energy>
0

> <Solvation Free Energy>
0

> <HasGasteigerCharges>
true

> <REMARK99>
REMARK  99  MacroMolecule created from Mol2 file
REMARK  99  CHEMBL247720
REMARK  99  PROTEIN
REMARK  99  GASTEIGER
REMARK  99
REMARK  99

$$$$
CHEMBL1935493
  SciTegic05292516403D

 66 68  0  0  0  0            999 V2000
   23.5507    0.9796    0.5751 C   0  0
   23.4073    1.4287   -0.7144 C   0  0
   22.0775    1.5749   -0.9598 O   0  0
   21.4244    1.1963    0.2097 C   0  0
   22.3054    0.8372    1.1411 N   0  0
   24.3406    1.7621   -1.8037 C   0  0
   24.7870    0.6685    1.3333 C   0  0
   25.2909    1.8616    2.1435 C   0  0
   26.5751    1.5467    2.7111 O   0  0
   27.6112    2.1212    2.0295 C   0  0
   28.5495    1.2720    1.4542 C   0  0
   28.8376    4.0311    1.2136 C   0  0
   27.7712    3.5001    1.9416 C   0  0
   20.0110    1.2107    0.3720 C   0  0
   19.1856    1.6383   -0.5978 C   0  0
   17.6742    1.7060   -0.5403 C   0  0
   29.7646    3.1835    0.5948 C   0  0
   29.6269    1.7961    0.7231 C   0  0
   30.5456    0.8510    0.0123 C   0  0
   31.8084    1.4113   -0.4710 N   0  0
   32.1099    2.8549   -0.2792 C   0  0  1  0  0  0
   30.8593    3.7397   -0.2753 C   0  0
   32.7636    0.6408   -1.1246 C   0  0
   32.4298   -0.7852   -1.3314 C   0  0
   33.8659    1.0717   -1.4479 O   0  0
   33.2953   -1.7252   -0.9282 C   0  0
   32.9662   -3.1295   -0.9894 C   0  0
   33.7846   -4.0839   -0.5300 C   0  0
   33.4626   -5.5433   -0.5565 C   0  0
   32.9897    3.1542    0.9510 C   0  0
   33.3793    2.0593    1.6510 O   0  0
   33.3745    4.2756    1.2635 O   0  0
   17.2212    3.1629   -0.6637 C   0  0
   17.0297    1.0647    0.6917 C   0  0
   23.8099    2.1392   -2.6833 H   0  0
   24.9100    0.8771   -2.1036 H   0  0
   25.0480    2.5315   -1.4788 H   0  0
   24.6118   -0.1803    2.0058 H   0  0
   25.5688    0.3329    0.6405 H   0  0
   25.3072    2.7708    1.5287 H   0  0
   24.6084    2.0602    2.9783 H   0  0
   28.4225    0.1965    1.5565 H   0  0
   28.9344    5.1116    1.1279 H   0  0
   27.0705    4.1683    2.4328 H   0  0
   19.6318    0.8675    1.3283 H   0  0
   19.6061    1.9773   -1.5449 H   0  0
   17.3012    1.1628   -1.4185 H   0  0
   30.7955    0.0161    0.6788 H   0  0
   30.0098    0.4465   -0.8547 H   0  0
   32.7335    3.1681   -1.1279 H   0  0
   30.4608    3.8014   -1.2965 H   0  0
   31.1101    4.7605    0.0367 H   0  0
   31.4715   -1.0281   -1.7682 H   0  0
   34.2577   -1.4426   -0.5016 H   0  0
   31.9939   -3.4026   -1.4000 H   0  0
   34.7600   -3.8297   -0.1159 H   0  0
   33.4757   -5.9455    0.4611 H   0  0
   34.2110   -6.0792   -1.1482 H   0  0
   32.4773   -5.7428   -0.9895 H   0  0
   32.9401    1.2705    1.2754 H   0  0
   16.1286    3.2279   -0.7081 H   0  0
   17.6167    3.6247   -1.5754 H   0  0
   17.5601    3.7601    0.1905 H   0  0
   15.9372    1.1001    0.6153 H   0  0
   17.3137    1.5832    1.6142 H   0  0
   17.3176    0.0118    0.7851 H   0  0
  1  2  2  0
  1  7  1  0
  2  3  1  0
  2  6  1  0
  3  4  1  0
  4  5  2  0
  4 14  1  0
  5  1  1  0
  6 35  1  0
  6 36  1  0
  6 37  1  0
  7  8  1  0
  7 38  1  0
  7 39  1  0
  8  9  1  0
  8 40  1  0
  8 41  1  0
  9 10  1  0
 10 11  2  0
 11 18  1  0
 11 42  1  0
 12 13  2  0
 12 43  1  0
 13 10  1  0
 13 44  1  0
 14 15  2  0
 14 45  1  0
 15 16  1  0
 15 46  1  0
 16 33  1  0
 16 34  1  0
 16 47  1  0
 17 12  1  0
 17 18  2  0
 17 22  1  0
 18 19  1  0
 19 20  1  0
 19 48  1  0
 19 49  1  0
 20 21  1  0
 20 23  1  0
 21 22  1  0
 21 30  1  0
 21 50  1  0
 22 51  1  0
 22 52  1  0
 23 24  1  0
 23 25  2  0
 24 26  2  0
 24 53  1  0
 26 27  1  0
 26 54  1  0
 27 28  2  0
 27 55  1  0
 28 29  1  0
 28 56  1  0
 29 57  1  0
 29 58  1  0
 29 59  1  0
 30 31  1  0
 30 32  2  0
 31 60  1  0
 33 61  1  0
 33 62  1  0
 33 63  1  0
 34 64  1  0
 34 65  1  0
 34 66  1  0
M  END
> <Name>
CHEMBL1935493

> <Clean Energy>
55.481098

> <chembl_id>
CHEMBL1935493

> <chembl_pref_name>
None

> <efficacy>
1.094736842

> <Forcefield>
MMFF

> <ForcefieldBase>
MMFF

> <ForcefieldFFML>
<?xml version="1.0" encoding="UTF-8"?>
<!DOCTYPE ffml SYSTEM "Ffml.dtd">
<ffml version="1.0">
<forcefield name="MMFF" derivedFrom="MMFF" base="MMFF">
<atomTypes>
<atomType
name="C100"
element="C"
mass="12.011"
annotation=""/>
<atomType
name="O101"
element="O"
mass="16"
annotation=""/>
<atomType
name="N102"
element="N"
mass="14.007"
annotation=""/>
<atomType
name="H103"
element="H"
mass="1.008"
annotation=""/>
</atomTypes>
<parameters>
</parameters>
</forcefield>
</ffml>

> <Initial Potential Energy>
113.13444

> <Initial RMS Gradient>
20.8716

> <Minimization Criteria>
STEEPD> Minimization exiting with gradient tolerance ( 3.0000000) satisfied.

> <CHARMm Energy>
14.02667

> <Potential Energy>
14.02667

> <RMS Gradient>
0.04462

> <Bond Energy>
5.80723

> <Angle Energy>
16.03111

> <STRBend>
0.17871

> <Dihedral Energy>
-2.66298

> <OOPLane>
0.28703

> <Van der Waals Energy>
51.2419

> <Electrostatic Energy>
-56.85634

> <Hydrogen Bond Energy>
0

> <Solvation Free Energy>
0

> <HasGasteigerCharges>
true

> <REMARK99>
REMARK  99  MacroMolecule created from Mol2 file
REMARK  99  CHEMBL1935493
REMARK  99  PROTEIN
REMARK  99  GASTEIGER
REMARK  99
REMARK  99

$$$$
CHEMBL515666
  SciTegic05292516403D

 54 57  0  0  0  0            999 V2000
    5.5591  -26.2158   -1.3316 C   0  0
    5.4189  -27.3032   -0.4653 C   0  0
    6.4862  -27.6907    0.3449 C   0  0
    6.7466  -25.4776   -1.3468 C   0  0
    7.8073  -25.8456   -0.5170 C   0  0
    7.6657  -26.9539    0.3142 C   0  0
    8.7029  -27.3417    1.1854 O   0  0
    9.9921  -26.8223    1.0600 C   0  0
   10.2330  -25.9970   -0.1736 C   0  0  1  0  0  0
    9.0732  -25.0553   -0.4516 C   0  0
   11.4881  -25.1817   -0.0352 C   0  0
   12.5562  -25.8664   -0.5250 O   0  0
   11.5276  -24.0543    0.4402 O   0  0
   13.8076  -25.1883   -0.3761 C   0  0
   10.8811  -27.1108    1.8600 O   0  0
    4.2853  -28.0617   -0.3650 O   0  0
    3.0558  -27.3310   -0.4591 C   0  0
    2.0443  -28.0193    0.4477 C   0  0
    0.7705  -27.2659    0.5670 C   0  0
    0.5173  -26.0740    1.2113 C   0  0
   -0.8109  -25.7942    1.0682 O   0  0
   -1.3158  -26.8527    0.3510 C   0  0
   -0.3967  -27.7420    0.0127 N   0  0
    1.3308  -25.1068    1.9693 C   0  0
   -2.7475  -26.8507    0.0744 C   0  0
   -3.5844  -25.8049    0.4866 C   0  0
   -4.9559  -25.8369    0.2140 C   0  0
   -5.5187  -26.9209   -0.4677 C   0  0
   -4.6876  -27.9610   -0.8947 C   0  0
   -3.3170  -27.9267   -0.6217 C   0  0
   -6.9825  -26.9398   -0.7897 C   0  0
    4.7548  -25.9289   -2.0030 H   0  0
    6.3837  -28.5439    1.0086 H   0  0
    6.8306  -24.6173   -2.0074 H   0  0
   10.3548  -26.6883   -1.0187 H   0  0
    9.2443  -24.5230   -1.3954 H   0  0
    8.9639  -24.3004    0.3378 H   0  0
   14.5942  -25.8409   -0.7643 H   0  0
   14.0119  -24.9881    0.6804 H   0  0
   13.8077  -24.2597   -0.9551 H   0  0
    3.1836  -26.2892   -0.1374 H   0  0
    2.7124  -27.3400   -1.5002 H   0  0
    1.8505  -29.0319    0.0725 H   0  0
    2.4785  -28.1579    1.4463 H   0  0
    0.7594  -24.6850    2.8019 H   0  0
    1.6486  -24.2861    1.3191 H   0  0
    2.2251  -25.5836    2.3821 H   0  0
   -3.1769  -24.9515    1.0243 H   0  0
   -5.5794  -25.0079    0.5401 H   0  0
   -5.0987  -28.8064   -1.4420 H   0  0
   -2.6863  -28.7496   -0.9558 H   0  0
   -7.3629  -27.9663   -0.8175 H   0  0
   -7.1578  -26.4703   -1.7626 H   0  0
   -7.5576  -26.4016   -0.0288 H   0  0
  1  2  2  0
  1 32  1  0
  2  3  1  0
  2 16  1  0
  3  6  2  0
  3 33  1  0
  4  1  1  0
  4 34  1  0
  5  4  2  0
  5  6  1  0
  5 10  1  0
  6  7  1  0
  7  8  1  0
  8  9  1  0
  8 15  2  0
  9 10  1  0
  9 11  1  0
  9 35  1  0
 10 36  1  0
 10 37  1  0
 11 12  1  0
 11 13  2  0
 12 14  1  0
 14 38  1  0
 14 39  1  0
 14 40  1  0
 16 17  1  0
 17 18  1  0
 17 41  1  0
 17 42  1  0
 18 19  1  0
 18 43  1  0
 18 44  1  0
 19 20  2  0
 20 21  1  0
 20 24  1  0
 21 22  1  0
 22 23  2  0
 22 25  1  0
 23 19  1  0
 24 45  1  0
 24 46  1  0
 24 47  1  0
 25 26  2  0
 26 27  1  0
 26 48  1  0
 27 28  2  0
 27 49  1  0
 28 29  1  0
 28 31  1  0
 29 30  2  0
 29 50  1  0
 30 25  1  0
 30 51  1  0
 31 52  1  0
 31 53  1  0
 31 54  1  0
M  END
> <Name>
CHEMBL515666

> <Clean Energy>
33.671902

> <chembl_id>
CHEMBL515666

> <chembl_pref_name>
None

> <efficacy>
1.01

> <Forcefield>
MMFF

> <ForcefieldBase>
MMFF

> <ForcefieldFFML>
<?xml version="1.0" encoding="UTF-8"?>
<!DOCTYPE ffml SYSTEM "Ffml.dtd">
<ffml version="1.0">
<forcefield name="MMFF" derivedFrom="MMFF" base="MMFF">
<atomTypes>
<atomType
name="C100"
element="C"
mass="12.011"
annotation=""/>
<atomType
name="O101"
element="O"
mass="16"
annotation=""/>
<atomType
name="N102"
element="N"
mass="14.007"
annotation=""/>
<atomType
name="H103"
element="H"
mass="1.008"
annotation=""/>
</atomTypes>
<parameters>
</parameters>
</forcefield>
</ffml>

> <Initial Potential Energy>
86.28073

> <Initial RMS Gradient>
24.75126

> <Minimization Criteria>
STEEPD> Minimization exiting with gradient tolerance ( 3.0000000) satisfied.

> <CHARMm Energy>
21.60756

> <Potential Energy>
21.60756

> <RMS Gradient>
0.05002

> <Bond Energy>
4.61346

> <Angle Energy>
16.71864

> <STRBend>
-0.55788

> <Dihedral Energy>
3.2872

> <OOPLane>
0.23932

> <Van der Waals Energy>
52.79912

> <Electrostatic Energy>
-55.4923

> <Hydrogen Bond Energy>
0

> <Solvation Free Energy>
0

> <HasGasteigerCharges>
true

> <REMARK99>
REMARK  99  MacroMolecule created from Mol2 file
REMARK  99  CHEMBL515666
REMARK  99  PROTEIN
REMARK  99  GASTEIGER
REMARK  99
REMARK  99

$$$$
CHEMBL246272
  SciTegic05292516403D

 73 77  0  0  0  0            999 V2000
    7.5290   -6.9182    0.0176 O   0  0
    8.8629   -6.8316   -0.2537 C   0  0
    9.1226   -5.5552   -0.7075 C   0  0
    7.9411   -4.8386   -0.7393 N   0  0
    7.0211   -5.6876   -0.3150 C   0  0
    5.5806   -5.5030   -0.1679 C   0  0
    4.9890   -4.2925   -0.5617 C   0  0
    3.6113   -4.0941   -0.4406 C   0  0
    2.8072   -5.1059    0.0780 C   0  0
    3.3770   -6.3136    0.4753 C   0  0
    4.7550   -6.5107    0.3532 C   0  0
    9.6581   -8.0497   -0.0259 C   0  0
   10.4010   -4.9538   -1.1783 C   0  0
   11.4362   -4.7416   -0.0727 C   0  0
   12.6313   -4.2353   -0.6832 O   0  0
   13.7412   -4.0767    0.1045 C   0  0
   13.8021   -4.2772    1.4821 C   0  0
   15.0044   -4.0771    2.1695 C   0  0
   16.1548   -3.6812    1.4860 C   0  0
   16.1211   -3.4811    0.1002 C   0  0
   14.9004   -3.6723   -0.5756 C   0  0
   17.3758   -3.0616   -0.6527 C   0  0
   18.4900   -4.0295   -0.5027 N   0  0
   19.7282   -3.5013   -1.1282 C   0  0
   18.1330   -5.3080   -1.1990 C   0  0
   18.9418   -6.4437   -0.5883 C   0  0
   19.3630   -7.4143   -1.2002 O   0  0
   19.1587   -6.2614    0.7420 O   0  0
   20.3202   -2.3010   -0.4262 C   0  0
   20.5426   -1.1131   -1.1374 C   0  0
   21.1529   -0.0161   -0.5233 C   0  0
   21.5490   -0.0897    0.8140 C   0  0
   21.3241   -1.2690    1.5295 C   0  0
   20.7180   -2.3692    0.9155 C   0  0
   22.1808    0.9150    1.5193 O   0  0
   22.4116    2.1023    0.8717 C   0  0
   23.6618    2.3298    0.2947 C   0  0
   23.9068    3.5365   -0.3566 C   0  0
   22.9051    4.5079   -0.4134 C   0  0
   21.6672    4.2902    0.1953 C   0  0
   21.4199    3.0845    0.8469 C   0  0
    5.6075   -3.4946   -0.9702 H   0  0
    3.1700   -3.1506   -0.7509 H   0  0
    1.7361   -4.9521    0.1720 H   0  0
    2.7518   -7.1044    0.8805 H   0  0
    5.1810   -7.4607    0.6692 H   0  0
    9.8759   -8.1675    1.0398 H   0  0
   10.6084   -8.0059   -0.5667 H   0  0
    9.1172   -8.9376   -0.3678 H   0  0
   10.8317   -5.5915   -1.9612 H   0  0
   10.1996   -3.9930   -1.6689 H   0  0
   11.0574   -4.0202    0.6615 H   0  0
   11.6479   -5.6954    0.4255 H   0  0
   12.9336   -4.5795    2.0568 H   0  0
   15.0404   -4.2259    3.2462 H   0  0
   17.0781   -3.5249    2.0413 H   0  0
   14.8443   -3.5072   -1.6499 H   0  0
   17.1448   -2.9040   -1.7147 H   0  0
   17.6569   -2.0825   -0.2455 H   0  0
   20.5091   -4.2736   -1.1212 H   0  0
   19.5451   -3.2634   -2.1851 H   0  0
   17.0867   -5.5915   -1.0470 H   0  0
   18.3195   -5.2525   -2.2775 H   0  0
   18.7032   -5.4136    0.9681 H   0  0
   20.2660   -1.0341   -2.1866 H   0  0
   21.3285    0.8767   -1.1178 H   0  0
   21.6461   -1.3376    2.5664 H   0  0
   20.5823   -3.2863    1.4843 H   0  0
   24.4264    1.5594    0.3423 H   0  0
   24.8759    3.7328   -0.8116 H   0  0
   23.0952    5.4483   -0.9236 H   0  0
   20.9082    5.0693    0.1658 H   0  0
   20.4578    2.8898    1.3133 H   0  0
  1  2  1  0
  2  3  2  0
  2 12  1  0
  3  4  1  0
  3 13  1  0
  4  5  2  0
  5  1  1  0
  5  6  1  0
  6  7  2  0
  7  8  1  0
  7 42  1  0
  8  9  2  0
  8 43  1  0
  9 10  1  0
  9 44  1  0
 10 11  2  0
 10 45  1  0
 11  6  1  0
 11 46  1  0
 12 47  1  0
 12 48  1  0
 12 49  1  0
 13 14  1  0
 13 50  1  0
 13 51  1  0
 14 15  1  0
 14 52  1  0
 14 53  1  0
 15 16  1  0
 16 17  2  0
 17 18  1  0
 17 54  1  0
 18 19  2  0
 18 55  1  0
 19 20  1  0
 19 56  1  0
 20 21  2  0
 20 22  1  0
 21 16  1  0
 21 57  1  0
 22 23  1  0
 22 58  1  0
 22 59  1  0
 23 24  1  0
 23 25  1  0
 24 29  1  0
 24 60  1  0
 24 61  1  0
 25 26  1  0
 25 62  1  0
 25 63  1  0
 26 27  2  0
 26 28  1  0
 28 64  1  0
 29 30  2  0
 30 31  1  0
 30 65  1  0
 31 32  2  0
 31 66  1  0
 32 33  1  0
 32 35  1  0
 33 34  2  0
 33 67  1  0
 34 29  1  0
 34 68  1  0
 35 36  1  0
 36 37  2  0
 37 38  1  0
 37 69  1  0
 38 39  2  0
 38 70  1  0
 39 40  1  0
 39 71  1  0
 40 41  2  0
 40 72  1  0
 41 36  1  0
 41 73  1  0
M  END
> <Name>
CHEMBL246272

> <Clean Energy>
48.788799

> <chembl_id>
CHEMBL246272

> <chembl_pref_name>
None

> <efficacy>
0.945

> <Forcefield>
MMFF

> <ForcefieldBase>
MMFF

> <ForcefieldFFML>
<?xml version="1.0" encoding="UTF-8"?>
<!DOCTYPE ffml SYSTEM "Ffml.dtd">
<ffml version="1.0">
<forcefield name="MMFF" derivedFrom="MMFF" base="MMFF">
<atomTypes>
<atomType
name="O100"
element="O"
mass="16"
annotation=""/>
<atomType
name="C101"
element="C"
mass="12.011"
annotation=""/>
<atomType
name="N102"
element="N"
mass="14.007"
annotation=""/>
<atomType
name="H103"
element="H"
mass="1.008"
annotation=""/>
</atomTypes>
<parameters>
</parameters>
</forcefield>
</ffml>

> <Initial Potential Energy>
345.92734

> <Initial RMS Gradient>
39.50452

> <Minimization Criteria>
CONJUG> Minimization exiting with gradient tolerance ( 0.0100000) satisfied.

> <CHARMm Energy>
108.01651

> <Potential Energy>
108.01651

> <RMS Gradient>
0.00973

> <Bond Energy>
8.76687

> <Angle Energy>
16.1666

> <STRBend>
0.90291

> <Dihedral Energy>
4.75891

> <OOPLane>
0.07141

> <Van der Waals Energy>
82.93923

> <Electrostatic Energy>
-5.58942

> <Hydrogen Bond Energy>
0

> <Solvation Free Energy>
0

> <HasGasteigerCharges>
true

> <REMARK99>
REMARK  99  MacroMolecule created from Mol2 file
REMARK  99  CHEMBL246272
REMARK  99  PROTEIN
REMARK  99  GASTEIGER
REMARK  99
REMARK  99

$$$$
CHEMBL1813010
  SciTegic05292516403D

 54 56  0  0  0  0            999 V2000
    1.8550  -12.6168   -1.7513 C   0  0
    1.2814  -13.7303   -1.1417 C   0  0
    1.8392  -14.2734    0.0096 C   0  0
    2.9604  -13.6726    0.5805 C   0  0
    3.5498  -12.5449   -0.0131 C   0  0
    2.9860  -12.0216   -1.1848 C   0  0
    4.8074  -11.9458    0.5802 C   0  0
    6.0624  -12.7186    0.1588 C   0  0  1  0  0  0
    7.2934  -12.0185    0.7355 C   0  0
    6.0134  -14.0463    0.7324 O   0  0
    6.6444  -15.0134   -0.1178 C   0  0
    6.6081  -16.3547    0.5858 C   0  0
    7.8072  -11.0047    0.2863 O   0  0
    7.7757  -12.6586    1.8367 O   0  0
    0.2077  -14.3550   -1.7122 O   0  0
   -1.0227  -13.6886   -1.3873 C   0  0
   -1.6995  -14.3914   -0.2113 C   0  0
   -3.0834  -13.9103    0.0192 C   0  0
   -3.3544  -12.5674    0.1318 N   0  0
   -4.6627  -12.4906    0.3217 C   0  0
   -5.2681  -13.7285    0.3479 O   0  0
   -4.2531  -14.6220    0.1606 C   0  0
   -5.3804  -11.2478    0.4735 C   0  0
   -4.6091  -16.0515    0.1500 C   0  0
   -4.8776   -9.9501    0.4496 C   0  0
   -5.9234   -8.9843    0.6321 C   0  0
   -7.1611   -9.5614    0.7860 C   0  0
   -7.0818  -11.2624    0.7157 S   0  0
   -3.4427   -9.5726    0.2604 C   0  0
    1.4359  -12.2216   -2.6719 H   0  0
    1.4136  -15.1653    0.4590 H   0  0
    3.3862  -14.1053    1.4832 H   0  0
    3.4231  -11.1530   -1.6713 H   0  0
    4.8888  -10.8931    0.2816 H   0  0
    4.7076  -11.9456    1.6740 H   0  0
    6.1566  -12.7716   -0.9330 H   0  0
    6.0993  -15.0761   -1.0662 H   0  0
    7.6811  -14.7184   -0.3144 H   0  0
    7.0838  -17.1281   -0.0233 H   0  0
    5.5747  -16.6511    0.7954 H   0  0
    7.1246  -16.2975    1.5494 H   0  0
    7.1782  -13.4289    2.0032 H   0  0
   -0.8837  -12.6171   -1.1887 H   0  0
   -1.6576  -13.7599   -2.2785 H   0  0
   -1.6959  -15.4746   -0.3846 H   0  0
   -1.1123  -14.2339    0.7008 H   0  0
   -4.0899  -16.5802    0.9553 H   0  0
   -4.3252  -16.5092   -0.8027 H   0  0
   -5.6850  -16.1964    0.2884 H   0  0
   -5.7712   -7.9110    0.6480 H   0  0
   -8.1081   -9.0641    0.9381 H   0  0
   -3.3159   -8.4856    0.2924 H   0  0
   -3.0733   -9.9224   -0.7087 H   0  0
   -2.8245  -10.0015    1.0550 H   0  0
  1  2  2  0
  1 30  1  0
  2  3  1  0
  2 15  1  0
  3  4  2  0
  3 31  1  0
  4  5  1  0
  4 32  1  0
  5  6  2  0
  5  7  1  0
  6  1  1  0
  6 33  1  0
  7  8  1  0
  7 34  1  0
  7 35  1  0
  8  9  1  0
  8 10  1  0
  8 36  1  0
  9 13  2  0
  9 14  1  0
 10 11  1  0
 11 12  1  0
 11 37  1  0
 11 38  1  0
 12 39  1  0
 12 40  1  0
 12 41  1  0
 14 42  1  0
 15 16  1  0
 16 17  1  0
 16 43  1  0
 16 44  1  0
 17 18  1  0
 17 45  1  0
 17 46  1  0
 18 19  1  0
 19 20  2  0
 20 21  1  0
 20 23  1  0
 21 22  1  0
 22 18  2  0
 22 24  1  0
 23 25  2  0
 24 47  1  0
 24 48  1  0
 24 49  1  0
 25 26  1  0
 25 29  1  0
 26 27  2  0
 26 50  1  0
 27 28  1  0
 27 51  1  0
 28 23  1  0
 29 52  1  0
 29 53  1  0
 29 54  1  0
M  END
> <Name>
CHEMBL1813010

> <Clean Energy>
54.581902

> <chembl_id>
CHEMBL1813010

> <chembl_pref_name>
None

> <efficacy>
1.92

> <Forcefield>
MMFF

> <ForcefieldBase>
MMFF

> <ForcefieldFFML>
<?xml version="1.0" encoding="UTF-8"?>
<!DOCTYPE ffml SYSTEM "Ffml.dtd">
<ffml version="1.0">
<forcefield name="MMFF" derivedFrom="MMFF" base="MMFF">
<atomTypes>
<atomType
name="C100"
element="C"
mass="12.011"
annotation=""/>
<atomType
name="O101"
element="O"
mass="16"
annotation=""/>
<atomType
name="N102"
element="N"
mass="14.007"
annotation=""/>
<atomType
name="S103"
element="S"
mass="32.066"
annotation=""/>
<atomType
name="H104"
element="H"
mass="1.008"
annotation=""/>
</atomTypes>
<parameters>
</parameters>
</forcefield>
</ffml>

> <Initial Potential Energy>
141.56458

> <Initial RMS Gradient>
23.69521

> <Minimization Criteria>
STEEPD> Minimization exiting with gradient tolerance ( 3.0000000) satisfied.

> <CHARMm Energy>
65.00479

> <Potential Energy>
65.00479

> <RMS Gradient>
0.17506

> <Bond Energy>
4.01539

> <Angle Energy>
8.88064

> <STRBend>
0.00379

> <Dihedral Energy>
7.60246

> <OOPLane>
0.0522

> <Van der Waals Energy>
34.08418

> <Electrostatic Energy>
10.36612

> <Hydrogen Bond Energy>
0

> <Solvation Free Energy>
0

> <HasGasteigerCharges>
true

> <REMARK99>
REMARK  99  MacroMolecule created from Mol2 file
REMARK  99  CHEMBL1813010
REMARK  99  PROTEIN
REMARK  99  GASTEIGER
REMARK  99
REMARK  99

$$$$
CHEMBL233003
  SciTegic05292516403D

 68 70  0  0  0  0            999 V2000
   -6.9720  -19.2696   -1.0685 C   0  0
   -7.5186  -20.2344   -0.2249 C   0  0
   -6.8942  -20.5407    0.9823 C   0  0
   -5.7152  -19.8890    1.3433 C   0  0
   -5.1552  -18.9126    0.5044 C   0  0
   -5.7977  -18.6104   -0.7062 C   0  0
   -3.8563  -18.2335    0.8985 C   0  0  1  0  0  0
   -2.7111  -18.7854    0.0534 C   0  0
   -3.9481  -16.8034    0.6607 O   0  0
   -4.5744  -15.9586    1.5186 C   0  0
   -4.9640  -14.7774    0.9558 N   0  0
   -4.8561  -16.2672    3.1257 S   0  0
   -4.8426  -14.4398   -0.4513 C   0  0
   -5.1538  -12.9668   -0.7441 C   0  0
   -1.3646  -18.2937    0.5831 C   0  0
   -0.2447  -19.0892   -0.0282 C   0  0
   -0.0436  -20.4167    0.3743 C   0  0
    0.9649  -21.1767   -0.1996 C   0  0
    1.8022  -20.6065   -1.1656 C   0  0
    1.5944  -19.2864   -1.5825 C   0  0
    0.5702  -18.5318   -1.0179 C   0  0
    2.9742  -21.3963   -1.6789 C   0  0
    4.0421  -21.5354   -0.5939 C   0  0  1  0  0  0
    4.9931  -22.6430   -1.0213 C   0  0
    6.2117  -22.1520   -1.3650 O   0  0
    4.7241  -23.8337   -1.0698 O   0  0
    4.8537  -20.3347   -0.5088 O   0  0
    4.5216  -19.5513    0.6439 C   0  0
    5.3449  -18.2794    0.6011 C   0  0
   -6.5467  -12.4745   -0.4081 C   0  0
   -6.7211  -11.1273   -0.0506 C   0  0
   -7.9915  -10.6185    0.2258 C   0  0
   -9.1081  -11.4449    0.1388 C   0  0
   -8.9535  -12.7802   -0.2250 C   0  0
   -7.6822  -13.2910   -0.5033 C   0  0
   -7.4674  -19.0271   -2.0055 H   0  0
   -8.4363  -20.7475   -0.5046 H   0  0
   -7.3337  -21.2862    1.6423 H   0  0
   -5.2310  -20.1530    2.2819 H   0  0
   -5.3830  -17.8585   -1.3739 H   0  0
   -3.6306  -18.4324    1.9520 H   0  0
   -2.7509  -19.8824    0.0659 H   0  0
   -2.8133  -18.4768   -0.9957 H   0  0
   -5.5065  -14.1592    1.5549 H   0  0
   -3.8141  -14.6590   -0.7612 H   0  0
   -5.4952  -15.1139   -1.0160 H   0  0
   -4.4252  -12.3574   -0.1930 H   0  0
   -4.9854  -12.7790   -1.8118 H   0  0
   -1.2397  -17.2246    0.3727 H   0  0
   -1.3082  -18.4006    1.6739 H   0  0
   -0.6835  -20.8611    1.1334 H   0  0
    1.1125  -22.2069    0.1233 H   0  0
    2.2437  -18.8318   -2.3283 H   0  0
    0.4135  -17.5068   -1.3470 H   0  0
    2.6081  -22.3775   -2.0076 H   0  0
    3.3945  -20.9085   -2.5678 H   0  0
    3.6557  -21.8130    0.3943 H   0  0
    6.1816  -21.1746   -1.2192 H   0  0
    3.4583  -19.3012    0.6540 H   0  0
    4.7648  -20.1198    1.5482 H   0  0
    5.1365  -17.6501    1.4708 H   0  0
    5.1256  -17.7099   -0.3081 H   0  0
    6.4147  -18.5125    0.5811 H   0  0
   -5.8621  -10.4608    0.0110 H   0  0
   -8.1117   -9.5736    0.5019 H   0  0
  -10.0976  -11.0436    0.3469 H   0  0
   -9.8239  -13.4274   -0.2980 H   0  0
   -7.5997  -14.3351   -0.7962 H   0  0
  1  2  2  0
  1 36  1  0
  2  3  1  0
  2 37  1  0
  3  4  2  0
  3 38  1  0
  4  5  1  0
  4 39  1  0
  5  6  2  0
  5  7  1  0
  6  1  1  0
  6 40  1  0
  7  8  1  0
  7  9  1  0
  7 41  1  0
  8 15  1  0
  8 42  1  0
  8 43  1  0
  9 10  1  0
 10 11  1  0
 10 12  2  0
 11 13  1  0
 11 44  1  0
 13 14  1  0
 13 45  1  0
 13 46  1  0
 14 30  1  0
 14 47  1  0
 14 48  1  0
 15 16  1  0
 15 49  1  0
 15 50  1  0
 16 17  2  0
 17 18  1  0
 17 51  1  0
 18 19  2  0
 18 52  1  0
 19 20  1  0
 19 22  1  0
 20 21  2  0
 20 53  1  0
 21 16  1  0
 21 54  1  0
 22 23  1  0
 22 55  1  0
 22 56  1  0
 23 24  1  0
 23 27  1  0
 23 57  1  0
 24 25  1  0
 24 26  2  0
 25 58  1  0
 27 28  1  0
 28 29  1  0
 28 59  1  0
 28 60  1  0
 29 61  1  0
 29 62  1  0
 29 63  1  0
 30 31  2  0
 31 32  1  0
 31 64  1  0
 32 33  2  0
 32 65  1  0
 33 34  1  0
 33 66  1  0
 34 35  2  0
 34 67  1  0
 35 30  1  0
 35 68  1  0
M  END
> <Name>
CHEMBL233003

> <Clean Energy>
32.063202

> <chembl_id>
CHEMBL233003

> <chembl_pref_name>
None

> <efficacy>
1.77

> <Forcefield>
MMFF

> <ForcefieldBase>
MMFF

> <ForcefieldFFML>
<?xml version="1.0" encoding="UTF-8"?>
<!DOCTYPE ffml SYSTEM "Ffml.dtd">
<ffml version="1.0">
<forcefield name="MMFF" derivedFrom="MMFF" base="MMFF">
<atomTypes>
<atomType
name="C100"
element="C"
mass="12.011"
annotation=""/>
<atomType
name="O101"
element="O"
mass="16"
annotation=""/>
<atomType
name="N102"
element="N"
mass="14.007"
annotation=""/>
<atomType
name="S103"
element="S"
mass="32.066"
annotation=""/>
<atomType
name="H104"
element="H"
mass="1.008"
annotation=""/>
</atomTypes>
<parameters>
</parameters>
</forcefield>
</ffml>

> <Initial Potential Energy>
186.91623

> <Initial RMS Gradient>
28.11064

> <Minimization Criteria>
CONJUG> Minimization exiting with gradient tolerance ( 0.0100000) satisfied.

> <CHARMm Energy>
43.64384

> <Potential Energy>
43.64384

> <RMS Gradient>
0.00913

> <Bond Energy>
6.60929

> <Angle Energy>
11.71471

> <STRBend>
0.43043

> <Dihedral Energy>
0.50401

> <OOPLane>
0.14213

> <Van der Waals Energy>
71.646

> <Electrostatic Energy>
-47.40273

> <Hydrogen Bond Energy>
0

> <Solvation Free Energy>
0

> <HasGasteigerCharges>
true

> <REMARK99>
REMARK  99  MacroMolecule created from Mol2 file
REMARK  99  CHEMBL233003
REMARK  99  PROTEIN
REMARK  99  GASTEIGER
REMARK  99
REMARK  99

$$$$
CHEMBL166628
  SciTegic05292516403D

 54 57  0  0  0  0            999 V2000
   -0.4128   -0.9883    0.4522 N   0  0
   -0.9025    0.2470    0.0772 C   0  0
   -1.4128   -1.9429    0.4216 C   0  0
   -2.2540    0.0749   -0.2226 C   0  0
   -2.5747   -1.3007   -0.0075 C   0  0
    9.9291    0.8817    0.8792 C   0  0
    9.0947   -0.3138    0.4253 C   0  0  1  0  0  0
    9.8251    1.4639    1.9469 O   0  0
   -1.0129    2.5584   -0.4493 N   0  0
    7.9892    0.2128   -0.5046 C   0  0
    0.9709   -1.2776    0.7940 C   0  0
   -0.2883    1.4924   -0.0369 C   0  0
    6.6505   -0.4746   -0.3430 C   0  0
   10.8738    1.2175   -0.0380 O   0  0
    4.1271   -1.7030   -0.1143 C   0  0
   -2.9944    1.1877   -0.6488 C   0  0
   -1.3896   -3.3166    0.7190 C   0  0
    9.9803   -1.1891   -0.3227 O   0  0
    6.5325   -1.8674   -0.3800 C   0  0
    5.4863    0.2940   -0.1987 C   0  0
   -3.7571   -2.0574   -0.1460 C   0  0
    5.2820   -2.4749   -0.2486 C   0  0
    4.2331   -0.3151   -0.0813 C   0  0
    2.9685   -2.4129    0.0143 O   0  0
    1.7577   -1.7825   -0.4113 C   0  0
   -2.3206    2.3932   -0.7382 C   0  0
   10.7643   -2.0330    0.5312 C   0  0
   -2.5740   -4.0431    0.5750 C   0  0
   -3.7431   -3.4243    0.1470 C   0  0
   11.6724   -2.8758   -0.3415 C   0  0
    8.7002   -0.8303    1.3081 H   0  0
    7.8412    1.2868   -0.3311 H   0  0
    8.2888    0.1076   -1.5556 H   0  0
    1.4239   -0.3762    1.2183 H   0  0
    0.9744   -2.0162    1.6040 H   0  0
    0.7527    1.6781    0.1894 H   0  0
   10.9432    0.5205   -0.7298 H   0  0
   -4.0448    1.1133   -0.8973 H   0  0
   -0.4838   -3.8159    1.0489 H   0  0
    7.4084   -2.4973   -0.5151 H   0  0
    5.5467    1.3813   -0.1751 H   0  0
   -4.6733   -1.5829   -0.4820 H   0  0
    5.2104   -3.5601   -0.2679 H   0  0
    3.3671    0.3243    0.0449 H   0  0
    1.9198   -0.9974   -1.1607 H   0  0
    1.1848   -2.5621   -0.9280 H   0  0
   -2.8381    3.2934   -1.0593 H   0  0
   11.3646   -1.4247    1.2155 H   0  0
   10.0991   -2.6808    1.1120 H   0  0
   -2.5821   -5.1077    0.7994 H   0  0
   -4.6530   -4.0074    0.0373 H   0  0
   12.2896   -3.5426    0.2670 H   0  0
   12.3280   -2.2381   -0.9436 H   0  0
   11.0841   -3.4786   -1.0412 H   0  0
  2  1  1  0
  3  1  1  0
  4  2  2  0
  4  5  1  0
  5  3  1  0
  6  7  1  0
  7 10  1  0
  7 31  1  0
  8  6  2  0
  9 12  2  0
 10 13  1  0
 10 32  1  0
 10 33  1  0
 11  1  1  0
 11 34  1  0
 11 35  1  0
 12  2  1  0
 12 36  1  0
 13 20  2  0
 14  6  1  0
 14 37  1  0
 15 24  1  0
 16  4  1  0
 16 38  1  0
 17  3  2  0
 17 39  1  0
 18  7  1  0
 19 13  1  0
 19 22  2  0
 19 40  1  0
 20 23  1  0
 20 41  1  0
 21  5  2  0
 21 29  1  0
 21 42  1  0
 22 15  1  0
 22 43  1  0
 23 15  2  0
 23 44  1  0
 24 25  1  0
 25 11  1  0
 25 45  1  0
 25 46  1  0
 26  9  1  0
 26 16  2  0
 26 47  1  0
 27 18  1  0
 27 48  1  0
 27 49  1  0
 28 17  1  0
 28 50  1  0
 29 28  2  0
 29 51  1  0
 30 27  1  0
 30 52  1  0
 30 53  1  0
 30 54  1  0
M  END
> <Name>
CHEMBL166628

> <Clean Energy>
42.027

> <chembl_id>
CHEMBL166628

> <chembl_pref_name>
None

> <efficacy>
1.13

> <Forcefield>
MMFF

> <ForcefieldBase>
MMFF

> <ForcefieldFFML>
<?xml version="1.0" encoding="UTF-8"?>
<!DOCTYPE ffml SYSTEM "Ffml.dtd">
<ffml version="1.0">
<forcefield name="MMFF" derivedFrom="MMFF" base="MMFF">
<atomTypes>
<atomType
name="N100"
element="N"
mass="14.007"
annotation=""/>
<atomType
name="C101"
element="C"
mass="12.011"
annotation=""/>
<atomType
name="O102"
element="O"
mass="16"
annotation=""/>
<atomType
name="H103"
element="H"
mass="1.008"
annotation=""/>
</atomTypes>
<parameters>
</parameters>
</forcefield>
</ffml>

> <Initial Potential Energy>
165.31452

> <Initial RMS Gradient>
31.36476

> <Minimization Criteria>
CONJUG> Minimization exiting with gradient tolerance ( 0.0100000) satisfied.

> <CHARMm Energy>
67.99963

> <Potential Energy>
67.99963

> <RMS Gradient>
0.00979

> <Bond Energy>
5.73278

> <Angle Energy>
12.49774

> <STRBend>
0.02045

> <Dihedral Energy>
1.26488

> <OOPLane>
0.06574

> <Van der Waals Energy>
57.61627

> <Electrostatic Energy>
-9.19823

> <Hydrogen Bond Energy>
0

> <Solvation Free Energy>
0

> <HasGasteigerCharges>
true

> <REMARK99>
REMARK  99  MacroMolecule created from Mol2 file
REMARK  99  CHEMBL166628
REMARK  99  PROTEIN
REMARK  99  GASTEIGER
REMARK  99
REMARK  99

$$$$
CHEMBL234859
  SciTegic05292516403D

 71 73  0  0  0  0            999 V2000
    5.2204   -9.2677   -0.8953 C   0  0
    4.7089  -10.3340   -0.1587 C   0  0
    5.3546  -10.7553    1.0024 C   0  0
    6.5174  -10.1133    1.4262 C   0  0
    7.0418   -9.0364    0.6951 C   0  0
    6.3799   -8.6209   -0.4708 C   0  0
    8.3246   -8.3668    1.1516 C   0  0  1  0  0  0
    9.4735   -8.7799    0.2370 C   0  0
    8.1828   -6.9247    1.0723 O   0  0
    7.5850   -6.1887    2.0416 C   0  0
    7.1281   -4.9740    1.6185 N   0  0
    7.4075   -6.6590    3.6233 S   0  0
   10.8068   -8.2700    0.7812 C   0  0
   11.9442   -8.9211    0.0449 C   0  0
   12.2233  -10.2760    0.2680 C   0  0
   13.2410  -10.9063   -0.4334 C   0  0
   14.0138  -10.1805   -1.3465 C   0  0
   13.7308   -8.8299   -1.5812 C   0  0
   12.6968   -8.2041   -0.8901 C   0  0
   15.1889  -10.8437   -2.0095 C   0  0
   16.3002  -11.1179   -0.9963 C   0  0  1  0  0  0
   17.2589  -12.1214   -1.6233 C   0  0
   18.4588  -11.5562   -1.9128 O   0  0
   17.0105  -13.2947   -1.8567 O   0  0
   17.0917   -9.9252   -0.7516 O   0  0
   16.7570   -9.3129    0.5005 C   0  0
   17.5967   -8.0593    0.6510 C   0  0
    7.1263   -4.5159    0.2415 C   0  0
    6.9359   -2.9972    0.1360 C   0  0
    8.1652   -2.2409    0.6667 C   0  0
    8.0159   -0.7293    0.5031 C   0  0
    7.7161   -0.3455   -0.9425 C   0  0
    6.4967   -1.0897   -1.4766 C   0  0
    6.6482   -2.6007   -1.3206 C   0  0
    4.7079   -8.9367   -1.7948 H   0  0
    3.7988  -10.8318   -0.4838 H   0  0
    4.9400  -11.5778    1.5813 H   0  0
    7.0171  -10.4583    2.3294 H   0  0
    6.7689   -7.7896   -1.0545 H   0  0
    8.5711   -8.6767    2.1731 H   0  0
    9.4858   -9.8743    0.1479 H   0  0
    9.3314   -8.3825   -0.7769 H   0  0
    6.6132   -4.4364    2.3095 H   0  0
   10.8645   -7.1784    0.6910 H   0  0
   10.9090   -8.4982    1.8497 H   0  0
   11.6383  -10.8488    0.9844 H   0  0
   13.4408  -11.9611   -0.2517 H   0  0
   14.3286   -8.2539   -2.2854 H   0  0
   12.4849   -7.1548   -1.0826 H   0  0
   14.8363  -11.7735   -2.4744 H   0  0
   15.5652  -10.2138   -2.8256 H   0  0
   15.9601  -11.5560   -0.0497 H   0  0
   18.4170  -10.6156   -1.6112 H   0  0
   15.6975   -9.0509    0.5351 H   0  0
   16.9837  -10.0094    1.3159 H   0  0
   17.3771   -7.5536    1.5954 H   0  0
   17.4057   -7.3652   -0.1739 H   0  0
   18.6636   -8.3035    0.6219 H   0  0
    8.0562   -4.8284   -0.2473 H   0  0
    6.3020   -5.0392   -0.2562 H   0  0
    6.0679   -2.7080    0.7450 H   0  0
    8.3241   -2.4695    1.7267 H   0  0
    9.0654   -2.5730    0.1339 H   0  0
    7.2070   -0.3702    1.1519 H   0  0
    8.9350   -0.2310    0.8324 H   0  0
    7.5481    0.7354   -1.0105 H   0  0
    8.5865   -0.5745   -1.5698 H   0  0
    5.6006   -0.7558   -0.9395 H   0  0
    6.3466   -0.8409   -2.5334 H   0  0
    7.4618   -2.9499   -1.9695 H   0  0
    5.7303   -3.0912   -1.6667 H   0  0
  1  2  2  0
  1 35  1  0
  2  3  1  0
  2 36  1  0
  3  4  2  0
  3 37  1  0
  4  5  1  0
  4 38  1  0
  5  6  2  0
  5  7  1  0
  6  1  1  0
  6 39  1  0
  7  8  1  0
  7  9  1  0
  7 40  1  0
  8 13  1  0
  8 41  1  0
  8 42  1  0
  9 10  1  0
 10 11  1  0
 10 12  2  0
 11 28  1  0
 11 43  1  0
 13 14  1  0
 13 44  1  0
 13 45  1  0
 14 15  2  0
 15 16  1  0
 15 46  1  0
 16 17  2  0
 16 47  1  0
 17 18  1  0
 17 20  1  0
 18 19  2  0
 18 48  1  0
 19 14  1  0
 19 49  1  0
 20 21  1  0
 20 50  1  0
 20 51  1  0
 21 22  1  0
 21 25  1  0
 21 52  1  0
 22 23  1  0
 22 24  2  0
 23 53  1  0
 25 26  1  0
 26 27  1  0
 26 54  1  0
 26 55  1  0
 27 56  1  0
 27 57  1  0
 27 58  1  0
 28 29  1  0
 28 59  1  0
 28 60  1  0
 29 30  1  0
 29 34  1  0
 29 61  1  0
 30 31  1  0
 30 62  1  0
 30 63  1  0
 31 32  1  0
 31 64  1  0
 31 65  1  0
 32 33  1  0
 32 66  1  0
 32 67  1  0
 33 34  1  0
 33 68  1  0
 33 69  1  0
 34 70  1  0
 34 71  1  0
M  END
> <Name>
CHEMBL234859

> <Clean Energy>
29.124901

> <chembl_id>
CHEMBL234859

> <chembl_pref_name>
None

> <efficacy>
1.45

> <Forcefield>
MMFF

> <ForcefieldBase>
MMFF

> <ForcefieldFFML>
<?xml version="1.0" encoding="UTF-8"?>
<!DOCTYPE ffml SYSTEM "Ffml.dtd">
<ffml version="1.0">
<forcefield name="MMFF" derivedFrom="MMFF" base="MMFF">
<atomTypes>
<atomType
name="C100"
element="C"
mass="12.011"
annotation=""/>
<atomType
name="O101"
element="O"
mass="16"
annotation=""/>
<atomType
name="N102"
element="N"
mass="14.007"
annotation=""/>
<atomType
name="S103"
element="S"
mass="32.066"
annotation=""/>
<atomType
name="H104"
element="H"
mass="1.008"
annotation=""/>
</atomTypes>
<parameters>
</parameters>
</forcefield>
</ffml>

> <Initial Potential Energy>
148.28208

> <Initial RMS Gradient>
24.18464

> <Minimization Criteria>
STEEPD> Minimization exiting with gradient tolerance ( 3.0000000) satisfied.

> <CHARMm Energy>
22.04395

> <Potential Energy>
22.04395

> <RMS Gradient>
0.16717

> <Bond Energy>
5.86556

> <Angle Energy>
11.34121

> <STRBend>
0.32585

> <Dihedral Energy>
-6.38244

> <OOPLane>
0.12843

> <Van der Waals Energy>
64.29097

> <Electrostatic Energy>
-53.52563

> <Hydrogen Bond Energy>
0

> <Solvation Free Energy>
0

> <HasGasteigerCharges>
true

> <REMARK99>
REMARK  99  MacroMolecule created from Mol2 file
REMARK  99  CHEMBL234859
REMARK  99  PROTEIN
REMARK  99  GASTEIGER
REMARK  99
REMARK  99

$$$$
CHEMBL3263232
  SciTegic05292516403D

 52 54  0  0  0  0            999 V2000
   32.9336   -7.4572   -0.1547 C   0  0
   32.6341   -8.7785   -0.4645 C   0  0
   33.6501   -9.7412   -0.5301 C   0  0
   34.9883   -9.4034   -0.2855 C   0  0
   35.2771   -8.0622    0.0501 C   0  0
   34.2528   -7.0980    0.1003 C   0  0
   36.6425   -7.5696    0.3686 C   0  0
   37.4724   -8.4412    1.0551 N   0  0
   36.9772   -6.4303    0.0548 O   0  0
   38.8180   -8.0346    1.4050 C   0  0
   39.7296   -7.9941    0.1796 C   0  0
   40.9200   -7.0633    0.3917 C   0  0
   41.6762   -6.8849   -0.9016 C   0  0
   42.1125   -5.6250   -1.1046 O   0  0
   41.8982   -7.7841   -1.6978 O   0  0
   36.0423  -10.3524   -0.4221 N   0  0
   35.9182  -11.7295   -0.5157 C   0  0
   37.1852  -12.4985   -0.7153 C   0  0
   34.8757  -12.3612   -0.3904 O   0  0
   37.2448  -13.8205   -0.2317 C   0  0
   38.3925  -14.6188   -0.3957 C   0  0
   39.4848  -14.0474   -1.0705 C   0  0
   39.4332  -12.7388   -1.5644 C   0  0
   38.2850  -11.9646   -1.3931 C   0  0
   38.4491  -16.0061    0.1184 C   0  0
   37.3940  -16.9114   -0.0954 C   0  0
   37.4463  -18.2192    0.4002 C   0  0
   38.5602  -18.6491    1.1152 C   0  0
   39.6239  -17.7787    1.3320 C   0  0
   39.5654  -16.4720    0.8400 C   0  0
   32.1457   -6.7095   -0.1149 H   0  0
   31.6074   -9.0689   -0.6746 H   0  0
   33.3559  -10.7475   -0.8147 H   0  0
   34.4849   -6.0621    0.3438 H   0  0
   37.0660   -9.2591    1.4977 H   0  0
   38.7530   -7.0511    1.8841 H   0  0
   39.2020   -8.7457    2.1435 H   0  0
   40.0728   -9.0103   -0.0532 H   0  0
   39.1769   -7.6609   -0.7077 H   0  0
   40.5562   -6.0877    0.7327 H   0  0
   41.6058   -7.4571    1.1484 H   0  0
   41.8950   -4.9788   -0.4060 H   0  0
   36.9804   -9.9665   -0.4061 H   0  0
   36.3789  -14.2289    0.2897 H   0  0
   40.3878  -14.6335   -1.2414 H   0  0
   40.2881  -12.3317   -2.1012 H   0  0
   38.2612  -10.9691   -1.8276 H   0  0
   36.5161  -16.6133   -0.6656 H   0  0
   36.6211  -18.9050    0.2209 H   0  0
   38.6018  -19.6649    1.4984 H   0  0
   40.4984  -18.1203    1.8819 H   0  0
   40.4009  -15.8032    1.0378 H   0  0
  1  2  2  0
  1 31  1  0
  2  3  1  0
  2 32  1  0
  3  4  2  0
  3 33  1  0
  4  5  1  0
  4 16  1  0
  5  6  2  0
  5  7  1  0
  6  1  1  0
  6 34  1  0
  7  8  1  0
  7  9  2  0
  8 10  1  0
  8 35  1  0
 10 11  1  0
 10 36  1  0
 10 37  1  0
 11 12  1  0
 11 38  1  0
 11 39  1  0
 12 13  1  0
 12 40  1  0
 12 41  1  0
 13 14  1  0
 13 15  2  0
 14 42  1  0
 16 17  1  0
 16 43  1  0
 17 18  1  0
 17 19  2  0
 18 20  2  0
 20 21  1  0
 20 44  1  0
 21 22  2  0
 21 25  1  0
 22 23  1  0
 22 45  1  0
 23 24  2  0
 23 46  1  0
 24 18  1  0
 24 47  1  0
 25 26  2  0
 26 27  1  0
 26 48  1  0
 27 28  2  0
 27 49  1  0
 28 29  1  0
 28 50  1  0
 29 30  2  0
 29 51  1  0
 30 25  1  0
 30 52  1  0
M  END
> <Name>
CHEMBL3263232

> <Clean Energy>
-3.12276

> <chembl_id>
CHEMBL3263232

> <chembl_pref_name>
None

> <efficacy>
2.174738841

> <Forcefield>
MMFF

> <ForcefieldBase>
MMFF

> <ForcefieldFFML>
<?xml version="1.0" encoding="UTF-8"?>
<!DOCTYPE ffml SYSTEM "Ffml.dtd">
<ffml version="1.0">
<forcefield name="MMFF" derivedFrom="MMFF" base="MMFF">
<atomTypes>
<atomType
name="C100"
element="C"
mass="12.011"
annotation=""/>
<atomType
name="N101"
element="N"
mass="14.007"
annotation=""/>
<atomType
name="O102"
element="O"
mass="16"
annotation=""/>
<atomType
name="H103"
element="H"
mass="1.008"
annotation=""/>
</atomTypes>
<parameters>
</parameters>
</forcefield>
</ffml>

> <Initial Potential Energy>
202.29532

> <Initial RMS Gradient>
71.90472

> <Minimization Criteria>
STEEPD> Minimization exiting with gradient tolerance ( 3.0000000) satisfied.

> <CHARMm Energy>
29.44822

> <Potential Energy>
29.44822

> <RMS Gradient>
0.01768

> <Bond Energy>
7.6518

> <Angle Energy>
8.39209

> <STRBend>
0.85524

> <Dihedral Energy>
4.41566

> <OOPLane>
0.27896

> <Van der Waals Energy>
64.21576

> <Electrostatic Energy>
-56.36128

> <Hydrogen Bond Energy>
0

> <Solvation Free Energy>
0

> <HasGasteigerCharges>
true

> <REMARK99>
REMARK  99  MacroMolecule created from Mol2 file
REMARK  99  CHEMBL3263232
REMARK  99  PROTEIN
REMARK  99  GASTEIGER
REMARK  99
REMARK  99

$$$$
CHEMBL3597390
  SciTegic05292516403D

 57 60  0  0  0  0            999 V2000
   -2.3170    1.0818   -0.0209 C   0  0
   -2.3946   -0.3112    0.0009 C   0  0
   -1.2569   -1.1202   -0.1175 C   0  0
   -1.0665    1.6990   -0.1486 C   0  0
    0.1017    0.9089   -0.2739 C   0  0
   -0.0238   -0.4804   -0.2590 C   0  0
    1.2357   -1.0099   -0.4132 N   0  0
    2.1582   -0.0036   -0.5134 C   0  0
    1.4951    1.2071   -0.4240 C   0  0
    2.1251    2.5664   -0.4776 C   0  0
    3.0037    2.9013    0.7107 C   0  0
    2.6958    2.2885    1.8767 O   0  0
    3.9192    3.7135    0.6455 O   0  0
   -3.5224    1.7299    0.0848 O   0  0
   -3.4896    3.1611    0.0316 C   0  0
   -4.9372    3.6460    0.0883 C   0  0
   -4.9871    5.0741    0.0385 O   0  0
   -6.2351    5.6425    0.0088 C   0  0
   -6.2699    7.0335   -0.1016 C   0  0
   -7.4909    7.7059   -0.1479 C   0  0
   -8.6885    6.9816   -0.0905 C   0  0
   -8.6682    5.5894    0.0199 C   0  0
   -7.4345    4.9331    0.0795 C   0  0
   -9.8907    4.9581    0.0609 O   0  0
   -9.8245    3.5271    0.1120 C   0  0
  -11.1717    2.8413    0.0984 C   0  0
  -11.1909    1.4349    0.1012 C   0  0
  -12.3962    0.7351    0.0935 C   0  0
  -13.6104    1.4298    0.0898 C   0  0
  -13.5926    2.8341    0.0796 C   0  0
  -12.3840    3.5351    0.0880 C   0  0
  -14.9139    0.6779    0.0550 C   0  0
  -14.8677   -0.5301    0.6898 F   0  0
  -15.9404    1.3569    0.6420 F   0  0
  -15.3287    0.4073   -1.2150 F   0  0
   -3.3635   -0.7935    0.1061 H   0  0
   -1.3510   -2.2003   -0.1082 H   0  0
   -0.9690    2.7776   -0.1667 H   0  0
    1.4440   -1.9994   -0.4534 H   0  0
    3.2097   -0.2361   -0.6414 H   0  0
    2.7491    2.6203   -1.3780 H   0  0
    1.3618    3.3476   -0.5522 H   0  0
    1.9311    1.6823    1.8109 H   0  0
   -2.9325    3.5692    0.8835 H   0  0
   -3.0317    3.5105   -0.9019 H   0  0
   -5.4774    3.2115   -0.7630 H   0  0
   -5.3916    3.2819    1.0188 H   0  0
   -5.3395    7.5983   -0.1514 H   0  0
   -7.5071    8.7912   -0.2332 H   0  0
   -9.6393    7.5057   -0.1337 H   0  0
   -7.3958    3.8589    0.1846 H   0  0
   -9.2755    3.1594   -0.7650 H   0  0
   -9.3251    3.2238    1.0415 H   0  0
  -10.2558    0.8758    0.1073 H   0  0
  -12.3858   -0.3543    0.0915 H   0  0
  -14.5281    3.3918    0.0665 H   0  0
  -12.3996    4.6233    0.0842 H   0  0
  1  2  2  0
  1 14  1  0
  2  3  1  0
  2 36  1  0
  3  6  2  0
  3 37  1  0
  4  1  1  0
  4 38  1  0
  5  4  2  0
  5  6  1  0
  6  7  1  0
  7  8  1  0
  7 39  1  0
  8  9  2  0
  8 40  1  0
  9  5  1  0
  9 10  1  0
 10 11  1  0
 10 41  1  0
 10 42  1  0
 11 12  1  0
 11 13  2  0
 12 43  1  0
 14 15  1  0
 15 16  1  0
 15 44  1  0
 15 45  1  0
 16 17  1  0
 16 46  1  0
 16 47  1  0
 17 18  1  0
 18 19  2  0
 19 20  1  0
 19 48  1  0
 20 21  2  0
 20 49  1  0
 21 22  1  0
 21 50  1  0
 22 23  2  0
 22 24  1  0
 23 18  1  0
 23 51  1  0
 24 25  1  0
 25 26  1  0
 25 52  1  0
 25 53  1  0
 26 27  2  0
 27 28  1  0
 27 54  1  0
 28 29  2  0
 28 55  1  0
 29 30  1  0
 29 32  1  0
 30 31  2  0
 30 56  1  0
 31 26  1  0
 31 57  1  0
 32 33  1  0
 32 34  1  0
 32 35  1  0
M  END
> <Name>
CHEMBL3597390

> <Clean Energy>
38.7132

> <chembl_id>
CHEMBL3597390

> <chembl_pref_name>
None

> <efficacy>
1.028

> <Forcefield>
MMFF

> <ForcefieldBase>
MMFF

> <ForcefieldFFML>
<?xml version="1.0" encoding="UTF-8"?>
<!DOCTYPE ffml SYSTEM "Ffml.dtd">
<ffml version="1.0">
<forcefield name="MMFF" derivedFrom="MMFF" base="MMFF">
<atomTypes>
<atomType
name="C100"
element="C"
mass="12.011"
annotation=""/>
<atomType
name="N101"
element="N"
mass="14.007"
annotation=""/>
<atomType
name="O102"
element="O"
mass="16"
annotation=""/>
<atomType
name="F103"
element="F"
mass="18.998"
annotation=""/>
<atomType
name="H104"
element="H"
mass="1.008"
annotation=""/>
</atomTypes>
<parameters>
</parameters>
</forcefield>
</ffml>

> <Initial Potential Energy>
185.94275

> <Initial RMS Gradient>
30.98391

> <Minimization Criteria>
STEEPD> Minimization exiting with gradient tolerance ( 3.0000000) satisfied.

> <CHARMm Energy>
99.08464

> <Potential Energy>
99.08464

> <RMS Gradient>
0.02573

> <Bond Energy>
5.89161

> <Angle Energy>
21.51879

> <STRBend>
-0.22673

> <Dihedral Energy>
-2.37361

> <OOPLane>
0.04534

> <Van der Waals Energy>
66.88513

> <Electrostatic Energy>
7.3441

> <Hydrogen Bond Energy>
0

> <Solvation Free Energy>
0

> <HasGasteigerCharges>
true

> <REMARK99>
REMARK  99  MacroMolecule created from Mol2 file
REMARK  99  CHEMBL3597390
REMARK  99  PROTEIN
REMARK  99  GASTEIGER
REMARK  99
REMARK  99

$$$$
CHEMBL5081988
  SciTegic05292516403D

 51 53  0  0  0  0            999 V2000
   36.5256  -21.1022   -1.2491 C   0  0
   35.6320  -20.9306   -0.0100 C   0  0
   35.6992  -22.2033    0.8499 C   0  0
   31.3812  -21.6806    1.3811 C   0  0
   30.8341  -22.6273    0.5052 C   0  0
   31.5109  -22.9122   -0.6860 C   0  0
   32.6986  -22.2424   -1.0216 C   0  0
   33.2332  -21.2974   -0.1269 C   0  0
   32.5552  -20.9809    1.0621 C   0  0
   32.9936  -19.8736    1.9764 C   0  0
   33.3593  -22.5490   -2.3360 C   0  0
   34.3281  -20.5821   -0.5270 O   0  0
   36.1642  -19.7048    0.7700 C   0  0
   37.4014  -19.8559    1.3069 O   0  0
   35.5655  -18.6445    0.9028 O   0  0
   29.4835  -23.2473    0.7972 C   0  0
   28.4610  -22.2298    0.9110 N   0  0
   27.9452  -21.4825   -0.1592 C   0  0
   27.2199  -20.4615    0.4345 N   0  0
   27.3175  -20.6965    1.7633 C   0  0
   28.0403  -21.7147    2.1122 N   0  0
   28.1540  -21.7091   -1.3419 O   0  0
   26.5649  -19.3787   -0.1986 C   0  0
   26.3870  -19.3382   -1.5903 C   0  0
   25.7333  -18.2653   -2.2098 C   0  0
   25.2543  -17.2089   -1.4437 C   0  0
   25.4381  -17.2120   -0.0659 C   0  0
   26.0824  -18.2911    0.5506 C   0  0
   24.3573  -15.7678   -2.2738 Br  0  0
   36.5060  -20.1990   -1.8708 H   0  0
   36.1719  -21.9241   -1.8792 H   0  0
   37.5689  -21.3058   -0.9868 H   0  0
   35.1612  -22.0804    1.7951 H   0  0
   36.7306  -22.4684    1.1056 H   0  0
   35.2636  -23.0638    0.3311 H   0  0
   30.8429  -21.4375    2.2970 H   0  0
   31.0800  -23.6228   -1.3896 H   0  0
   32.2570  -19.6897    2.7666 H   0  0
   33.0928  -18.9391    1.4169 H   0  0
   33.9353  -20.1278    2.4683 H   0  0
   34.1928  -23.2405   -2.1826 H   0  0
   33.7243  -21.6354   -2.8158 H   0  0
   32.6555  -23.0129   -3.0356 H   0  0
   37.8835  -20.6794    1.1035 H   0  0
   29.1927  -23.9245   -0.0136 H   0  0
   29.5261  -23.8259    1.7266 H   0  0
   26.8070  -20.0459    2.4810 H   0  0
   26.7475  -20.1389   -2.2311 H   0  0
   25.5958  -18.2709   -3.2890 H   0  0
   25.0804  -16.3821    0.5402 H   0  0
   26.2264  -18.2294    1.6250 H   0  0
  1 30  1  0
  1 31  1  0
  1 32  1  0
  2  1  1  0
  2 13  1  0
  3  2  1  0
  3 33  1  0
  3 34  1  0
  3 35  1  0
  4  5  2  0
  4 36  1  0
  5  6  1  0
  5 16  1  0
  6  7  2  0
  6 37  1  0
  7  8  1  0
  7 11  1  0
  8  9  2  0
  8 12  1  0
  9  4  1  0
  9 10  1  0
 10 38  1  0
 10 39  1  0
 10 40  1  0
 11 41  1  0
 11 42  1  0
 11 43  1  0
 12  2  1  0
 13 14  1  0
 13 15  2  0
 14 44  1  0
 16 17  1  0
 16 45  1  0
 16 46  1  0
 17 18  1  0
 18 19  1  0
 18 22  2  0
 19 20  1  0
 19 23  1  0
 20 21  2  0
 20 47  1  0
 21 17  1  0
 23 24  2  0
 24 25  1  0
 24 48  1  0
 25 26  2  0
 25 49  1  0
 26 27  1  0
 26 29  1  0
 27 28  2  0
 27 50  1  0
 28 23  1  0
 28 51  1  0
M  END
> <Name>
CHEMBL5081988

> <Clean Energy>
59.717098

> <chembl_id>
CHEMBL5081988

> <chembl_pref_name>
None

> <efficacy>
1.51

> <Forcefield>
MMFF

> <ForcefieldBase>
MMFF

> <ForcefieldFFML>
<?xml version="1.0" encoding="UTF-8"?>
<!DOCTYPE ffml SYSTEM "Ffml.dtd">
<ffml version="1.0">
<forcefield name="MMFF" derivedFrom="MMFF" base="MMFF">
<atomTypes>
<atomType
name="C100"
element="C"
mass="12.011"
annotation=""/>
<atomType
name="O101"
element="O"
mass="16"
annotation=""/>
<atomType
name="N102"
element="N"
mass="14.007"
annotation=""/>
<atomType
name="Br103"
element="Br"
mass="79.904"
annotation=""/>
<atomType
name="H104"
element="H"
mass="1.008"
annotation=""/>
</atomTypes>
<parameters>
</parameters>
</forcefield>
</ffml>

> <Initial Potential Energy>
210.9506

> <Initial RMS Gradient>
31.08388

> <Minimization Criteria>
STEEPD> Minimization exiting with gradient tolerance ( 3.0000000) satisfied.

> <CHARMm Energy>
92.34854

> <Potential Energy>
92.34854

> <RMS Gradient>
0.02948

> <Bond Energy>
6.69456

> <Angle Energy>
28.96503

> <STRBend>
-0.25188

> <Dihedral Energy>
9.99482

> <OOPLane>
0.37614

> <Van der Waals Energy>
53.07761

> <Electrostatic Energy>
-6.50773

> <Hydrogen Bond Energy>
0

> <Solvation Free Energy>
0

> <HasGasteigerCharges>
true

> <REMARK99>
REMARK  99  MacroMolecule created from Mol2 file
REMARK  99  CHEMBL5081988
REMARK  99  PROTEIN
REMARK  99  GASTEIGER
REMARK  99
REMARK  99

$$$$
CHEMBL4546069
  SciTegic05292516403D

 75 79  0  0  0  0            999 V2000
   38.9994  -10.9027    0.2158 C   0  0
   37.7135  -10.8201    0.3032 N   0  0
   37.2367  -12.1872    0.3038 O   0  0
   38.3450  -12.9962    0.2254 C   0  0
   39.4167  -12.1906    0.1227 N   0  0
   39.3254   -1.3268   -1.4432 C   0  0
   39.5404   -2.6703   -1.3272 O   0  0
   40.7075   -2.8244   -0.5843 N   0  0
   41.0973   -1.5608   -0.3528 C   0  0
   40.2564   -0.5970   -0.8656 N   0  0
   36.3669   -5.8379   -1.0308 C   0  0
   36.9725   -6.6920   -1.9729 C   0  0
   37.9748   -7.6209   -1.6089 C   0  0
   38.4167   -7.7370   -0.2839 C   0  0
   37.7685   -6.9163    0.6649 C   0  0
   36.7634   -5.9868    0.3027 C   0  0
   39.7083   -8.4080    0.0441 C   0  0
   39.9914   -9.7867    0.2497 C   0  0
   41.3265  -10.1715    0.5660 C   0  0
   42.3712   -9.2505    0.6424 C   0  0
   42.1103   -7.9124    0.4158 C   0  0
   40.8069   -7.5054    0.1267 C   0  0
   35.2598   -4.8696   -1.4596 C   0  0
   35.4785   -3.4235   -1.2045 N   0  0
   36.4416   -2.7986   -1.9748 C   0  0
   36.8113   -1.4196   -1.5861 C   0  0
   35.9603   -0.7782   -0.7697 C   0  0
   34.8093   -1.3468   -0.2911 N   0  0
   34.6188   -2.6169   -0.4728 C   0  0
   36.9977   -3.3309   -2.9344 O   0  0
   33.3793   -3.2610    0.1419 C   0  0
   32.4928   -2.2990    0.9343 C   0  0
   31.2721   -3.0175    1.5086 C   0  0
   30.3789   -2.0655    2.2876 C   0  0
   38.0980   -0.9032   -2.1694 C   0  0
   42.3273   -1.2308    0.4523 C   0  0
   38.3621  -14.2208    0.2616 O   0  0
   36.2009    0.6148   -0.2513 C   0  0
   43.4852   -2.1939    0.1210 C   0  0
   42.8084    0.2039    0.1524 C   0  0
   42.0048   -1.3347    1.9545 C   0  0
   40.3268  -12.6133    0.0329 H   0  0
   36.6953   -6.6230   -3.0243 H   0  0
   38.4580   -8.1995   -2.3940 H   0  0
   38.0913   -6.9478    1.7050 H   0  0
   36.3185   -5.3686    1.0795 H   0  0
   41.5934  -11.2013    0.7925 H   0  0
   43.3787   -9.5839    0.8861 H   0  0
   42.9105   -7.1779    0.4665 H   0  0
   40.6369   -6.4398   -0.0485 H   0  0
   35.0988   -4.9728   -2.5409 H   0  0
   34.3371   -5.2213   -0.9919 H   0  0
   32.7909   -3.7027   -0.6713 H   0  0
   33.7099   -4.0734    0.8001 H   0  0
   33.0714   -1.8475    1.7498 H   0  0
   32.1629   -1.4788    0.2844 H   0  0
   30.6910   -3.4714    0.6975 H   0  0
   31.5951   -3.8299    2.1697 H   0  0
   29.5125   -2.6012    2.6886 H   0  0
   30.0115   -1.2585    1.6454 H   0  0
   30.9198   -1.6179    3.1272 H   0  0
   38.1890   -1.2062   -3.2203 H   0  0
   38.0823    0.1925   -2.2122 H   0  0
   35.5694    1.3293   -0.7888 H   0  0
   37.2416    0.9359   -0.3433 H   0  0
   35.9508    0.6727    0.8143 H   0  0
   44.3931   -1.9288    0.6753 H   0  0
   43.7274   -2.1696   -0.9482 H   0  0
   43.2370   -3.2302    0.3789 H   0  0
   43.7164    0.4454    0.7171 H   0  0
   42.0484    0.9476    0.4198 H   0  0
   43.0339    0.3321   -0.9130 H   0  0
   42.8787   -1.0860    2.5671 H   0  0
   41.6856   -2.3479    2.2252 H   0  0
   41.1942   -0.6514    2.2345 H   0  0
  1  2  2  0
  2  3  1  0
  3  4  1  0
  4  5  1  0
  4 37  2  0
  5  1  1  0
  5 42  1  0
  6  7  1  0
  7  8  1  0
  8  9  2  0
  9 10  1  0
  9 36  1  0
 10  6  2  0
 11 12  2  0
 11 23  1  0
 12 13  1  0
 12 43  1  0
 13 14  2  0
 13 44  1  0
 14 15  1  0
 14 17  1  0
 15 16  2  0
 15 45  1  0
 16 11  1  0
 16 46  1  0
 17 18  2  0
 18  1  1  0
 18 19  1  0
 19 20  2  0
 19 47  1  0
 20 21  1  0
 20 48  1  0
 21 22  2  0
 21 49  1  0
 22 17  1  0
 22 50  1  0
 23 24  1  0
 23 51  1  0
 23 52  1  0
 24 25  1  0
 24 29  1  0
 25 26  1  0
 25 30  2  0
 26 27  2  0
 26 35  1  0
 27 28  1  0
 27 38  1  0
 28 29  2  0
 29 31  1  0
 31 32  1  0
 31 53  1  0
 31 54  1  0
 32 33  1  0
 32 55  1  0
 32 56  1  0
 33 34  1  0
 33 57  1  0
 33 58  1  0
 34 59  1  0
 34 60  1  0
 34 61  1  0
 35  6  1  0
 35 62  1  0
 35 63  1  0
 36 39  1  0
 36 40  1  0
 36 41  1  0
 38 64  1  0
 38 65  1  0
 38 66  1  0
 39 67  1  0
 39 68  1  0
 39 69  1  0
 40 70  1  0
 40 71  1  0
 40 72  1  0
 41 73  1  0
 41 74  1  0
 41 75  1  0
M  END
> <Name>
CHEMBL4546069

> <Clean Energy>
77.498901

> <chembl_id>
CHEMBL4546069

> <chembl_pref_name>
None

> <efficacy>
0.930674264

> <Forcefield>
MMFF

> <ForcefieldBase>
MMFF

> <ForcefieldFFML>
<?xml version="1.0" encoding="UTF-8"?>
<!DOCTYPE ffml SYSTEM "Ffml.dtd">
<ffml version="1.0">
<forcefield name="MMFF" derivedFrom="MMFF" base="MMFF">
<atomTypes>
<atomType
name="C100"
element="C"
mass="12.011"
annotation=""/>
<atomType
name="N101"
element="N"
mass="14.007"
annotation=""/>
<atomType
name="O102"
element="O"
mass="16"
annotation=""/>
<atomType
name="H103"
element="H"
mass="1.008"
annotation=""/>
</atomTypes>
<parameters>
</parameters>
</forcefield>
</ffml>

> <Initial Potential Energy>
185.58281

> <Initial RMS Gradient>
30.17412

> <Minimization Criteria>
STEEPD> Minimization exiting with gradient tolerance ( 3.0000000) satisfied.

> <CHARMm Energy>
14.24859

> <Potential Energy>
14.24859

> <RMS Gradient>
0.10057

> <Bond Energy>
13.20256

> <Angle Energy>
27.05568

> <STRBend>
1.21925

> <Dihedral Energy>
6.14459

> <OOPLane>
0.69111

> <Van der Waals Energy>
66.06829

> <Electrostatic Energy>
-100.1329

> <Hydrogen Bond Energy>
0

> <Solvation Free Energy>
0

> <HasGasteigerCharges>
true

> <REMARK99>
REMARK  99  MacroMolecule created from Mol2 file
REMARK  99  CHEMBL4546069
REMARK  99  PROTEIN
REMARK  99  GASTEIGER
REMARK  99
REMARK  99

$$$$
CHEMBL248906
  SciTegic05292516403D

 71 72  0  0  0  0            999 V2000
   -1.8197   -3.2663   -0.1710 C   0  0
   -0.7843   -2.3888   -0.5518 N   0  0
   -1.6105   -4.4687    0.5201 C   0  0
   -3.1360   -2.8641   -0.4475 C   0  0
    0.5338   -2.7227   -0.7714 C   0  0
   -2.6786   -5.2807    0.8887 C   0  0
   -0.3888   -4.8263    0.9376 F   0  0
   -4.2096   -3.6826   -0.0884 C   0  0
    1.4100   -1.6329   -0.7348 N   0  0
    0.9172   -3.8568   -1.0322 O   0  0
   -3.9687   -4.8806    0.5759 C   0  0
    1.0694   -0.3010   -0.2007 C   0  0
    2.8032   -1.8675   -1.1132 C   0  0
   -5.0045   -5.6528    0.9292 F   0  0
    0.6960    0.7000   -1.3059 C   0  0
    3.6544   -2.3089    0.0794 C   0  0
   -0.0003    1.9371   -0.7816 C   0  0
    5.1069   -2.5472   -0.3347 C   0  0
   -1.3157    1.8560   -0.3175 C   0  0
    0.6298    3.1899   -0.7699 C   0  0
    5.9602   -2.9854    0.8566 C   0  0
   -1.9744    2.9987    0.1418 C   0  0
   -0.0409    4.3397   -0.3104 C   0  0
    7.4141   -3.2198    0.4434 C   0  0
   -1.3481    4.2509    0.1479 C   0  0
    8.2667   -3.6562    1.6345 C   0  0
   -2.1489    5.2413    0.6156 O   0  0
    9.7133   -3.8890    1.2287 C   0  0
   -1.8376    6.6469    0.7260 C   0  0  2  0  0  0
   -3.1363    7.2534    1.3704 C   0  0
   -1.6033    7.3348   -0.6307 C   0  0
   -0.7195    6.9079    1.7387 C   0  0
   -3.9842    6.2520    1.7686 O   0  0
   -3.3872    8.4421    1.5292 O   0  0
   -2.6672    7.0231   -1.6785 C   0  0
   -1.0529   -1.4652   -0.8543 H   0  0
   -3.3380   -1.9254   -0.9592 H   0  0
   -2.5012   -6.2034    1.4286 H   0  0
   -5.2360   -3.4216   -0.3292 H   0  0
    0.2510   -0.4104    0.5194 H   0  0
    1.9233    0.0770    0.3740 H   0  0
    2.8382   -2.6374   -1.8932 H   0  0
    3.2008   -0.9468   -1.5552 H   0  0
    1.5981    0.9824   -1.8630 H   0  0
    0.0355    0.2252   -2.0432 H   0  0
    3.6169   -1.5465    0.8667 H   0  0
    3.2383   -3.2266    0.5131 H   0  0
    5.1448   -3.3158   -1.1162 H   0  0
    5.5214   -1.6274   -0.7650 H   0  0
   -1.8489    0.9089   -0.3151 H   0  0
    1.6521    3.2904   -1.1310 H   0  0
    5.9201   -2.2180    1.6392 H   0  0
    5.5470   -3.9064    1.2853 H   0  0
   -3.0008    2.9052    0.4911 H   0  0
    0.4989    5.2782   -0.3378 H   0  0
    7.4547   -3.9878   -0.3387 H   0  0
    7.8271   -2.2990    0.0136 H   0  0
    8.2319   -2.8903    2.4180 H   0  0
    7.8609   -4.5792    2.0646 H   0  0
   10.3047   -4.1999    2.0956 H   0  0
   10.1590   -2.9749    0.8235 H   0  0
    9.7862   -4.6734    0.4687 H   0  0
   -1.5567    8.4225   -0.4928 H   0  0
   -0.6337    7.0411   -1.0448 H   0  0
   -0.6411    7.9736    1.9814 H   0  0
    0.2579    6.5851    1.3734 H   0  0
   -0.9052    6.3623    2.6712 H   0  0
   -3.5987    5.3732    1.5274 H   0  0
   -2.4437    7.5592   -2.6067 H   0  0
   -3.6617    7.3348   -1.3456 H   0  0
   -2.7006    5.9552   -1.9131 H   0  0
  1  2  1  0
  1  3  1  0
  1  4  2  0
  2 36  1  0
  3  6  2  0
  3  7  1  0
  4  8  1  0
  4 37  1  0
  5  2  1  0
  5  9  1  0
  5 10  2  0
  6 38  1  0
  8 39  1  0
 11  6  1  0
 11  8  2  0
 11 14  1  0
 12  9  1  0
 12 15  1  0
 12 40  1  0
 12 41  1  0
 13  9  1  0
 13 16  1  0
 13 42  1  0
 13 43  1  0
 15 17  1  0
 15 44  1  0
 15 45  1  0
 16 18  1  0
 16 46  1  0
 16 47  1  0
 17 19  1  0
 17 20  2  0
 18 21  1  0
 18 48  1  0
 18 49  1  0
 19 22  2  0
 19 50  1  0
 20 23  1  0
 20 51  1  0
 21 24  1  0
 21 52  1  0
 21 53  1  0
 22 25  1  0
 22 54  1  0
 23 25  2  0
 23 55  1  0
 24 26  1  0
 24 56  1  0
 24 57  1  0
 25 27  1  0
 26 28  1  0
 26 58  1  0
 26 59  1  0
 28 60  1  0
 28 61  1  0
 28 62  1  0
 29 27  1  0
 29 30  1  0
 29 31  1  0
 29 32  1  0
 30 33  1  0
 30 34  2  0
 31 35  1  0
 31 63  1  0
 31 64  1  0
 32 65  1  0
 32 66  1  0
 32 67  1  0
 33 68  1  0
 35 69  1  0
 35 70  1  0
 35 71  1  0
M  END
> <Name>
CHEMBL248906

> <Clean Energy>
37.7346

> <chembl_id>
CHEMBL248906

> <chembl_pref_name>
None

> <efficacy>
0.975

> <Forcefield>
MMFF

> <ForcefieldBase>
MMFF

> <ForcefieldFFML>
<?xml version="1.0" encoding="UTF-8"?>
<!DOCTYPE ffml SYSTEM "Ffml.dtd">
<ffml version="1.0">
<forcefield name="MMFF" derivedFrom="MMFF" base="MMFF">
<atomTypes>
<atomType
name="C100"
element="C"
mass="12.011"
annotation=""/>
<atomType
name="N101"
element="N"
mass="14.007"
annotation=""/>
<atomType
name="F102"
element="F"
mass="18.998"
annotation=""/>
<atomType
name="O103"
element="O"
mass="16"
annotation=""/>
<atomType
name="H104"
element="H"
mass="1.008"
annotation=""/>
</atomTypes>
<parameters>
</parameters>
</forcefield>
</ffml>

> <Initial Potential Energy>
127.96618

> <Initial RMS Gradient>
28.00859

> <Minimization Criteria>
CONJUG> Minimization exiting with gradient tolerance ( 0.0100000) satisfied.

> <CHARMm Energy>
2.37061

> <Potential Energy>
2.37061

> <RMS Gradient>
0.00988

> <Bond Energy>
7.8477

> <Angle Energy>
23.86388

> <STRBend>
0.36834

> <Dihedral Energy>
-6.79104

> <OOPLane>
0.25556

> <Van der Waals Energy>
59.91305

> <Electrostatic Energy>
-83.08688

> <Hydrogen Bond Energy>
0

> <Solvation Free Energy>
0

> <HasGasteigerCharges>
true

> <REMARK99>
REMARK  99  MacroMolecule created from Mol2 file
REMARK  99  CHEMBL248906
REMARK  99  PROTEIN
REMARK  99  GASTEIGER
REMARK  99
REMARK  99

$$$$
CHEMBL3764450
  SciTegic05292516403D

 56 57  0  0  0  0            999 V2000
   -1.1809   -3.8875   -0.4510 F   0  0
   -1.2405   -3.0432    0.6135 C   0  0
   -0.4704   -3.6086    1.5838 F   0  0
    0.3455   -1.0972    0.8303 C   0  0
    0.7727    0.1944    0.5234 C   0  0
    0.0371    0.9801   -0.3566 C   0  0
   -1.1256    0.4726   -0.9327 C   0  0
   -1.5648   -0.8356   -0.6481 C   0  0
   -0.8265   -1.6297    0.2588 C   0  0
   -2.8334   -1.3221   -1.3107 C   0  0
   -4.0017   -0.7940   -0.6620 N   0  0
   -2.5171   -3.1101    1.0827 F   0  0
   -5.2514   -1.2194   -1.0491 C   0  0
   -6.3914   -0.5147   -0.4189 C   0  0
   -5.4428   -2.0677   -1.9119 O   0  0
   -7.5378   -0.3097   -1.1907 C   0  0
   -8.5867    0.4499   -0.6820 C   0  0
   -8.4994    1.0046    0.6022 C   0  0
   -7.3756    0.7415    1.3949 C   0  0
   -6.3230   -0.0187    0.8878 C   0  0
   -9.5855    1.9260    1.0940 C   0  0
   -9.5046    3.3098    0.4272 C   0  0  1  0  0  0
  -10.8383    3.9799    0.6523 C   0  0
  -11.6251    3.8604   -0.4555 O   0  0
  -11.1765    4.5330    1.6900 O   0  0
  -12.9231    4.4505   -0.3230 C   0  0
  -13.6714    4.2448   -1.6255 C   0  0
   -8.3609    4.1750    0.9893 C   0  0
   -8.2051    5.5001    0.2348 C   0  0
   -7.0412    6.3141    0.7788 C   0  0
    0.9459   -1.6963    1.5165 H   0  0
    1.6875    0.5831    0.9662 H   0  0
    0.3861    1.9805   -0.6030 H   0  0
   -1.7025    1.1038   -1.6097 H   0  0
   -2.8499   -0.9976   -2.3590 H   0  0
   -2.8957   -2.4144   -1.3347 H   0  0
   -3.8930   -0.0226   -0.0191 H   0  0
   -7.6001   -0.7133   -2.1992 H   0  0
   -9.4613    0.6283   -1.3041 H   0  0
   -7.3037    1.1473    2.4019 H   0  0
   -5.4610   -0.2145    1.5189 H   0  0
  -10.5544    1.4515    0.8858 H   0  0
   -9.5389    2.0233    2.1867 H   0  0
   -9.3531    3.2068   -0.6555 H   0  0
  -13.4669    3.9673    0.4964 H   0  0
  -12.8231    5.5225   -0.1193 H   0  0
  -14.6733    4.6797   -1.5729 H   0  0
  -13.7604    3.1777   -1.8547 H   0  0
  -13.1293    4.7051   -2.4582 H   0  0
   -8.5285    4.3803    2.0543 H   0  0
   -7.4145    3.6267    0.9178 H   0  0
   -8.0378    5.3030   -0.8304 H   0  0
   -9.1209    6.0960    0.3151 H   0  0
   -6.9458    7.2544    0.2268 H   0  0
   -6.0988    5.7658    0.6807 H   0  0
   -7.1912    6.5544    1.8362 H   0  0
  2  1  1  0
  2 12  1  0
  3  2  1  0
  4  5  2  0
  4 31  1  0
  5  6  1  0
  5 32  1  0
  6  7  2  0
  6 33  1  0
  7  8  1  0
  7 34  1  0
  8  9  2  0
  8 10  1  0
  9  2  1  0
  9  4  1  0
 10 11  1  0
 10 35  1  0
 10 36  1  0
 11 13  1  0
 11 37  1  0
 13 14  1  0
 13 15  2  0
 14 16  2  0
 16 17  1  0
 16 38  1  0
 17 18  2  0
 17 39  1  0
 18 19  1  0
 18 21  1  0
 19 20  2  0
 19 40  1  0
 20 14  1  0
 20 41  1  0
 21 22  1  0
 21 42  1  0
 21 43  1  0
 22 23  1  0
 22 28  1  0
 22 44  1  0
 23 24  1  0
 23 25  2  0
 24 26  1  0
 26 27  1  0
 26 45  1  0
 26 46  1  0
 27 47  1  0
 27 48  1  0
 27 49  1  0
 28 29  1  0
 28 50  1  0
 28 51  1  0
 29 30  1  0
 29 52  1  0
 29 53  1  0
 30 54  1  0
 30 55  1  0
 30 56  1  0
M  END
> <Name>
CHEMBL3764450

> <Clean Energy>
34.546501

> <chembl_id>
CHEMBL3764450

> <chembl_pref_name>
None

> <efficacy>
1.253561254

> <Forcefield>
MMFF

> <ForcefieldBase>
MMFF

> <ForcefieldFFML>
<?xml version="1.0" encoding="UTF-8"?>
<!DOCTYPE ffml SYSTEM "Ffml.dtd">
<ffml version="1.0">
<forcefield name="MMFF" derivedFrom="MMFF" base="MMFF">
<atomTypes>
<atomType
name="F100"
element="F"
mass="18.998"
annotation=""/>
<atomType
name="C101"
element="C"
mass="12.011"
annotation=""/>
<atomType
name="N102"
element="N"
mass="14.007"
annotation=""/>
<atomType
name="O103"
element="O"
mass="16"
annotation=""/>
<atomType
name="H104"
element="H"
mass="1.008"
annotation=""/>
</atomTypes>
<parameters>
</parameters>
</forcefield>
</ffml>

> <Initial Potential Energy>
231.85822

> <Initial RMS Gradient>
82.69604

> <Minimization Criteria>
CONJUG> Minimization exiting with gradient tolerance ( 0.0100000) satisfied.

> <CHARMm Energy>
27.20107

> <Potential Energy>
27.20107

> <RMS Gradient>
0.00987

> <Bond Energy>
5.17067

> <Angle Energy>
4.64574

> <STRBend>
0.48368

> <Dihedral Energy>
-4.32042

> <OOPLane>
0.199

> <Van der Waals Energy>
50.49143

> <Electrostatic Energy>
-29.46905

> <Hydrogen Bond Energy>
0

> <Solvation Free Energy>
0

> <HasGasteigerCharges>
true

> <REMARK99>
REMARK  99  MacroMolecule created from Mol2 file
REMARK  99  CHEMBL3764450
REMARK  99  PROTEIN
REMARK  99  GASTEIGER
REMARK  99
REMARK  99

$$$$
CHEMBL482824
  SciTegic05292516403D

 60 61  0  0  0  0            999 V2000
    8.5466  -17.9985    1.2385 C   0  0
    8.7496  -19.1519    0.4809 C   0  0
    9.9486  -19.3422   -0.2174 C   0  0
   10.9407  -18.3546   -0.1450 C   0  0
   10.7418  -17.1982    0.6235 C   0  0
    9.5380  -17.0203    1.3098 C   0  0
   11.8206  -16.1710    0.6714 C   0  0
   11.9553  -15.3242    1.9224 C   0  0
   12.6003  -16.0434   -0.3626 N   0  0
   13.5539  -15.0391   -0.1512 O   0  0
   14.3467  -14.8868   -1.3275 C   0  0
   15.5655  -14.0881   -0.9538 C   0  0
   16.7696  -14.7310   -0.6570 C   0  0
   17.8854  -13.9938   -0.2557 C   0  0
   17.8326  -12.5934   -0.1282 C   0  0
   16.6118  -11.9644   -0.4240 C   0  0
   15.4937  -12.6995   -0.8285 C   0  0
   10.1746  -20.6003   -1.0216 C   0  0
   11.0949  -21.6247   -0.3375 C   0  0  1  0  0  0
   10.3317  -22.3166    0.8130 C   0  0
   11.5207  -22.5280   -1.3654 O   0  0
   12.5666  -23.4034   -0.9475 C   0  0
   12.9496  -24.2804   -2.1235 C   0  0
   10.2956  -21.5891    1.9582 O   0  0
    9.8148  -23.4242    0.7500 O   0  0
   19.0796  -11.8143    0.3245 C   0  0
   20.2314  -12.0513   -0.6763 C   0  0
   19.5156  -12.2984    1.7244 C   0  0
   18.8633  -10.2867    0.4174 C   0  0
    7.6072  -17.8554    1.7671 H   0  0
    7.9606  -19.9008    0.4372 H   0  0
   11.8722  -18.4796   -0.6962 H   0  0
    9.3387  -16.1190    1.8829 H   0  0
   11.5763  -14.3187    1.7188 H   0  0
   13.0060  -15.2601    2.2213 H   0  0
   11.4113  -15.7510    2.7680 H   0  0
   14.6374  -15.8675   -1.7246 H   0  0
   13.7647  -14.3659   -2.0964 H   0  0
   16.8388  -15.8159   -0.7193 H   0  0
   18.8016  -14.5350   -0.0324 H   0  0
   16.4957  -10.8866   -0.3439 H   0  0
   14.5590  -12.1809   -1.0302 H   0  0
    9.2108  -21.0675   -1.2653 H   0  0
   10.5976  -20.3132   -1.9942 H   0  0
   11.9869  -21.1370    0.0753 H   0  0
   13.4337  -22.8156   -0.6273 H   0  0
   12.2332  -24.0311   -0.1156 H   0  0
   13.7535  -24.9697   -1.8506 H   0  0
   13.2805  -23.6685   -2.9692 H   0  0
   12.0876  -24.8611   -2.4683 H   0  0
   10.7082  -20.7041    1.8914 H   0  0
   21.1228  -11.4779   -0.3962 H   0  0
   19.9430  -11.7458   -1.6891 H   0  0
   20.5300  -13.1042   -0.7230 H   0  0
   20.3830  -11.7334    2.0857 H   0  0
   19.7995  -13.3565    1.7278 H   0  0
   18.7076  -12.1722    2.4548 H   0  0
   19.7786   -9.7771    0.7417 H   0  0
   18.0804  -10.0333    1.1418 H   0  0
   18.5833   -9.8589   -0.5523 H   0  0
  1  2  2  0
  1 30  1  0
  2  3  1  0
  2 31  1  0
  3  4  2  0
  3 18  1  0
  4  5  1  0
  4 32  1  0
  5  6  2  0
  5  7  1  0
  6  1  1  0
  6 33  1  0
  7  8  1  0
  7  9  2  0
  8 34  1  0
  8 35  1  0
  8 36  1  0
  9 10  1  0
 10 11  1  0
 11 12  1  0
 11 37  1  0
 11 38  1  0
 12 13  2  0
 13 14  1  0
 13 39  1  0
 14 15  2  0
 14 40  1  0
 15 16  1  0
 15 26  1  0
 16 17  2  0
 16 41  1  0
 17 12  1  0
 17 42  1  0
 18 19  1  0
 18 43  1  0
 18 44  1  0
 19 20  1  0
 19 21  1  0
 19 45  1  0
 20 24  1  0
 20 25  2  0
 21 22  1  0
 22 23  1  0
 22 46  1  0
 22 47  1  0
 23 48  1  0
 23 49  1  0
 23 50  1  0
 24 51  1  0
 26 27  1  0
 26 28  1  0
 26 29  1  0
 27 52  1  0
 27 53  1  0
 27 54  1  0
 28 55  1  0
 28 56  1  0
 28 57  1  0
 29 58  1  0
 29 59  1  0
 29 60  1  0
M  END
> <Name>
CHEMBL482824

> <Clean Energy>
42.692799

> <chembl_id>
CHEMBL482824

> <chembl_pref_name>
None

> <efficacy>
1.55

> <Forcefield>
MMFF

> <ForcefieldBase>
MMFF

> <ForcefieldFFML>
<?xml version="1.0" encoding="UTF-8"?>
<!DOCTYPE ffml SYSTEM "Ffml.dtd">
<ffml version="1.0">
<forcefield name="MMFF" derivedFrom="MMFF" base="MMFF">
<atomTypes>
<atomType
name="C100"
element="C"
mass="12.011"
annotation=""/>
<atomType
name="N101"
element="N"
mass="14.007"
annotation=""/>
<atomType
name="O102"
element="O"
mass="16"
annotation=""/>
<atomType
name="H103"
element="H"
mass="1.008"
annotation=""/>
</atomTypes>
<parameters>
</parameters>
</forcefield>
</ffml>

> <Initial Potential Energy>
228.09435

> <Initial RMS Gradient>
24.22075

> <Minimization Criteria>
STEEPD> Minimization exiting with gradient tolerance ( 3.0000000) satisfied.

> <CHARMm Energy>
122.94658

> <Potential Energy>
122.94658

> <RMS Gradient>
0.0345

> <Bond Energy>
7.21683

> <Angle Energy>
8.36109

> <STRBend>
1.47493

> <Dihedral Energy>
3.34891

> <OOPLane>
0.0416

> <Van der Waals Energy>
58.60311

> <Electrostatic Energy>
43.9001

> <Hydrogen Bond Energy>
0

> <Solvation Free Energy>
0

> <HasGasteigerCharges>
true

> <REMARK99>
REMARK  99  MacroMolecule created from Mol2 file
REMARK  99  CHEMBL482824
REMARK  99  PROTEIN
REMARK  99  GASTEIGER
REMARK  99
REMARK  99

$$$$
CHEMBL167963
  SciTegic05292516403D

 61 64  0  0  0  0            999 V2000
   -0.4349   -1.7875    0.2906 N   0  0
   -0.4321   -3.1538   -0.1050 C   0  0
   -1.4515   -0.8105    0.1361 C   0  0
    9.2961    1.7373   -0.3481 C   0  0
    9.2160    0.2438   -0.0316 C   0  0  1  0  0  0
   -2.7884   -1.0655    0.4806 C   0  0
   -1.5931   -3.9168   -0.3591 C   0  0
    8.3426    2.4956   -0.4353 O   0  0
    8.2799   -0.4491   -1.0358 C   0  0
   -3.0136   -3.4397   -0.1501 C   0  0
   -3.2000   -2.4245    0.9670 C   0  0
    0.6575   -1.3508    1.2076 C   0  0
    6.8809   -0.6594   -0.4964 C   0  0
   10.5743    2.1656   -0.5247 O   0  0
    4.2713   -1.0591    0.5001 C   0  0
   10.5730   -0.2731   -0.1228 O   0  0
    6.6010   -1.7379    0.3492 C   0  0
    5.8440    0.2263   -0.8212 C   0  0
    5.3085   -1.9289    0.8459 C   0  0
    4.5445    0.0242   -0.3324 C   0  0
    3.0634   -1.3602    1.0632 O   0  0
    1.8898   -0.7598    0.4943 C   0  0
   -1.1314    0.4734   -0.3517 C   0  0
    0.8045   -3.8130   -0.3163 C   0  0
   -3.7603   -0.0561    0.3609 C   0  0
   -1.4761   -5.2466   -0.8388 C   0  0
   10.7228   -1.4841    0.6257 C   0  0
   -2.1048    1.4683   -0.4809 C   0  0
    0.9060   -5.1332   -0.7668 C   0  0
   12.1466   -1.9734    0.4483 C   0  0
   -0.2409   -5.8521   -1.0362 C   0  0
   -3.4191    1.2042   -0.1165 C   0  0
    8.8788    0.1607    1.0090 H   0  0
    8.2240    0.1209   -1.9728 H   0  0
    8.6784   -1.4265   -1.3347 H   0  0
   -3.3991   -3.0592   -1.1050 H   0  0
   -3.6314   -4.3084    0.1158 H   0  0
   -2.6405   -2.6928    1.8716 H   0  0
   -4.2589   -2.4087    1.2544 H   0  0
    0.2758   -0.6007    1.9158 H   0  0
    0.9503   -2.1876    1.8575 H   0  0
   11.2067    1.4114   -0.4363 H   0  0
    7.3812   -2.4413    0.6279 H   0  0
    6.0471    1.0913   -1.4536 H   0  0
    5.1088   -2.7711    1.5046 H   0  0
    3.7773    0.7406   -0.6067 H   0  0
    1.9164    0.3219    0.6701 H   0  0
    1.8580   -0.9527   -0.5844 H   0  0
   -0.1178    0.7037   -0.6685 H   0  0
    1.7456   -3.2952   -0.1630 H   0  0
   -4.7937   -0.2552    0.6325 H   0  0
   -2.3733   -5.8270   -1.0514 H   0  0
   10.5292   -1.2861    1.6855 H   0  0
   10.0246   -2.2469    0.2688 H   0  0
   -1.8551    2.4495   -0.8754 H   0  0
    1.8859   -5.5774   -0.9182 H   0  0
   12.3158   -2.8954    1.0115 H   0  0
   12.8603   -1.2154    0.7877 H   0  0
   12.3602   -2.1610   -0.6092 H   0  0
   -0.1849   -6.8757   -1.3958 H   0  0
   -4.1770    1.9756   -0.2146 H   0  0
  2  1  1  0
  3  1  1  0
  4  5  1  0
  5  9  1  0
  5 33  1  0
  6  3  2  0
  7  2  2  0
  8  4  2  0
  9 13  1  0
  9 34  1  0
  9 35  1  0
 10  7  1  0
 10 36  1  0
 10 37  1  0
 11  6  1  0
 11 10  1  0
 11 38  1  0
 11 39  1  0
 12  1  1  0
 12 40  1  0
 12 41  1  0
 13 18  2  0
 14  4  1  0
 14 42  1  0
 15 21  1  0
 16  5  1  0
 17 13  1  0
 17 19  2  0
 17 43  1  0
 18 20  1  0
 18 44  1  0
 19 15  1  0
 19 45  1  0
 20 15  2  0
 20 46  1  0
 21 22  1  0
 22 12  1  0
 22 47  1  0
 22 48  1  0
 23  3  1  0
 23 49  1  0
 24  2  1  0
 24 50  1  0
 25  6  1  0
 25 51  1  0
 26  7  1  0
 26 31  2  0
 26 52  1  0
 27 16  1  0
 27 53  1  0
 27 54  1  0
 28 23  2  0
 28 55  1  0
 29 24  2  0
 29 56  1  0
 30 27  1  0
 30 57  1  0
 30 58  1  0
 30 59  1  0
 31 29  1  0
 31 60  1  0
 32 25  2  0
 32 28  1  0
 32 61  1  0
M  END
> <Name>
CHEMBL167963

> <Clean Energy>
43.0527

> <chembl_id>
CHEMBL167963

> <chembl_pref_name>
None

> <efficacy>
1.265

> <Forcefield>
MMFF

> <ForcefieldBase>
MMFF

> <ForcefieldFFML>
<?xml version="1.0" encoding="UTF-8"?>
<!DOCTYPE ffml SYSTEM "Ffml.dtd">
<ffml version="1.0">
<forcefield name="MMFF" derivedFrom="MMFF" base="MMFF">
<atomTypes>
<atomType
name="N100"
element="N"
mass="14.007"
annotation=""/>
<atomType
name="C101"
element="C"
mass="12.011"
annotation=""/>
<atomType
name="O102"
element="O"
mass="16"
annotation=""/>
<atomType
name="H103"
element="H"
mass="1.008"
annotation=""/>
</atomTypes>
<parameters>
</parameters>
</forcefield>
</ffml>

> <Initial Potential Energy>
228.8709

> <Initial RMS Gradient>
28.69119

> <Minimization Criteria>
STEEPD> Minimization exiting with gradient tolerance ( 3.0000000) satisfied.

> <CHARMm Energy>
108.69929

> <Potential Energy>
108.69929

> <RMS Gradient>
0.04071

> <Bond Energy>
8.92336

> <Angle Energy>
18.40343

> <STRBend>
1.67503

> <Dihedral Energy>
16.25583

> <OOPLane>
0.22828

> <Van der Waals Energy>
73.99463

> <Electrostatic Energy>
-10.78128

> <Hydrogen Bond Energy>
0

> <Solvation Free Energy>
0

> <HasGasteigerCharges>
true

> <REMARK99>
REMARK  99  MacroMolecule created from Mol2 file
REMARK  99  CHEMBL167963
REMARK  99  PROTEIN
REMARK  99  GASTEIGER
REMARK  99
REMARK  99

$$$$
CHEMBL3335667
  SciTegic05292516403D

 55 57  0  0  0  0            999 V2000
   16.3366   -7.2622   -0.7939 C   0  0
   13.8196   -7.3564   -0.2182 C   0  0
   11.4110   -5.9452    0.3024 C   0  0
   15.2136   -0.8006    3.1824 O   0  0
    9.9689   -3.9882    0.0710 N   0  0
    6.4627   -2.7848    0.6343 C   0  0
    8.8800   -1.8333   -0.3473 C   0  0
    9.2892   -5.8635    1.2698 O   0  0
    7.7371   -1.0176   -0.3806 C   0  0
   11.4193   -7.3427    0.2534 C   0  0
   12.6056   -8.0364   -0.0047 C   0  0
   13.7950   -5.9528   -0.1492 C   0  0
   12.9462   -0.1373   -1.2360 C   0  0
   15.1401    0.1794   -0.2534 C   0  0
    8.8187   -3.1548    0.1471 C   0  0
   12.6094   -5.2523    0.1118 C   0  0
   14.7175   -0.5285    0.8759 C   0  0
   10.1180   -5.2607    0.5984 C   0  0
    6.5262   -1.4959    0.1136 C   0  0
   15.6123   -0.7657    2.0317 C   0  0
   14.9157   -9.0871   -1.6984 C   0  0
   15.1105   -8.1511   -0.4852 C   0  0
   11.1961   -1.3164    0.0658 N   0  0
   14.2512    0.3653   -1.3107 C   0  0
    7.5933   -3.6084    0.6523 C   0  0
   15.4521   -8.9970    0.7592 C   0  0
   13.4013   -1.0080    0.9595 C   0  0
   12.5054   -0.8154   -0.0975 C   0  0
   16.8955   -0.9945    1.6907 O   0  0
   10.1431   -1.2159   -0.8273 C   0  0
   10.1455   -0.6723   -1.9227 O   0  0
    4.9680   -3.3806    1.2440 Cl  0  0
   17.2243   -7.8719   -0.9999 H   0  0
   16.5871   -6.6099    0.0507 H   0  0
   16.1644   -6.6315   -1.6741 H   0  0
   10.7365   -3.6281   -0.4846 H   0  0
    7.7920   -0.0075   -0.7849 H   0  0
   10.5010   -7.9043    0.4210 H   0  0
   12.5678   -9.1255   -0.0257 H   0  0
   14.7007   -5.3665   -0.2826 H   0  0
   12.2895    0.0426   -2.0826 H   0  0
   16.1333    0.6195   -0.3129 H   0  0
   12.6632   -4.1713    0.1917 H   0  0
    5.6415   -0.8636    0.0928 H   0  0
   15.8392   -9.6301   -1.9315 H   0  0
   14.6282   -8.5199   -2.5916 H   0  0
   14.1403   -9.8407   -1.5235 H   0  0
   10.9902   -1.7446    0.9643 H   0  0
   14.5584    0.9194   -2.1956 H   0  0
    7.4736   -4.6146    1.0420 H   0  0
   16.3823   -9.5580    0.6132 H   0  0
   14.6686   -9.7273    0.9890 H   0  0
   15.5797   -8.3630    1.6448 H   0  0
   13.0891   -1.5245    1.8661 H   0  0
   17.0998   -1.0461    0.7391 H   0  0
  1 33  1  0
  1 34  1  0
  1 35  1  0
  2 12  1  0
  2 22  1  0
  3 10  2  0
  5 18  1  0
  5 36  1  0
  6 25  1  0
  6 32  1  0
  7  9  2  0
  7 30  1  0
  9 19  1  0
  9 37  1  0
 10 11  1  0
 10 38  1  0
 11  2  2  0
 11 39  1  0
 12 16  2  0
 12 40  1  0
 13 28  1  0
 13 41  1  0
 14 24  1  0
 14 42  1  0
 15  5  1  0
 15  7  1  0
 16  3  1  0
 16 43  1  0
 17 14  2  0
 17 20  1  0
 18  3  1  0
 18  8  2  0
 19  6  2  0
 19 44  1  0
 20  4  2  0
 20 29  1  0
 21 45  1  0
 21 46  1  0
 21 47  1  0
 22  1  1  0
 22 21  1  0
 22 26  1  0
 23 28  1  0
 23 48  1  0
 24 13  2  0
 24 49  1  0
 25 15  2  0
 25 50  1  0
 26 51  1  0
 26 52  1  0
 26 53  1  0
 27 17  1  0
 27 54  1  0
 28 27  2  0
 29 55  1  0
 30 23  1  0
 30 31  2  0
M  END
> <Name>
CHEMBL3335667

> <Clean Energy>
11.6693

> <chembl_id>
CHEMBL3335667

> <chembl_pref_name>
None

> <efficacy>
2.431149098

> <Forcefield>
MMFF

> <ForcefieldBase>
MMFF

> <ForcefieldFFML>
<?xml version="1.0" encoding="UTF-8"?>
<!DOCTYPE ffml SYSTEM "Ffml.dtd">
<ffml version="1.0">
<forcefield name="MMFF" derivedFrom="MMFF" base="MMFF">
<atomTypes>
<atomType
name="C100"
element="C"
mass="12.011"
annotation=""/>
<atomType
name="O101"
element="O"
mass="16"
annotation=""/>
<atomType
name="N102"
element="N"
mass="14.007"
annotation=""/>
<atomType
name="Cl103"
element="Cl"
mass="35.453"
annotation=""/>
<atomType
name="H104"
element="H"
mass="1.008"
annotation=""/>
</atomTypes>
<parameters>
</parameters>
</forcefield>
</ffml>

> <Initial Potential Energy>
254.51453

> <Initial RMS Gradient>
81.3438

> <Minimization Criteria>
STEEPD> Minimization exiting with gradient tolerance ( 3.0000000) satisfied.

> <CHARMm Energy>
74.82577

> <Potential Energy>
74.82577

> <RMS Gradient>
0.13035

> <Bond Energy>
8.4216

> <Angle Energy>
13.83001

> <STRBend>
2.09121

> <Dihedral Energy>
13.42529

> <OOPLane>
0.11921

> <Van der Waals Energy>
74.4226

> <Electrostatic Energy>
-37.48414

> <Hydrogen Bond Energy>
0

> <Solvation Free Energy>
0

> <HasGasteigerCharges>
true

> <REMARK99>
REMARK  99  MacroMolecule created from Mol2 file
REMARK  99  CHEMBL3335667
REMARK  99  PROTEIN
REMARK  99  GASTEIGER
REMARK  99
REMARK  99

$$$$
CHEMBL497203
  SciTegic05292516403D

 70 73  0  0  0  0            999 V2000
    6.5001  -23.2148   -0.0770 C   0  0
    5.1599  -22.8664   -0.4431 O   0  0
    4.5421  -21.9320    0.4408 C   0  0
    3.2933  -21.3681   -0.2019 C   0  0
    3.3880  -20.3867   -1.1969 C   0  0
    2.2329  -19.8552   -1.7868 C   0  0
    0.9533  -20.2978   -1.4132 C   0  0
    0.8664  -21.3101   -0.4474 C   0  0
    2.0208  -21.8253    0.1673 C   0  0
   -0.4377  -19.6696   -2.3500 S   0  0
   -1.4765  -18.8266   -1.1539 C   0  0
   -3.4668  -17.5357    0.3523 C   0  0
   -3.5887  -18.8902    0.0554 C   0  0
   -2.6112  -19.5216   -0.7106 C   0  0
   -4.4653  -16.8853    1.0435 O   0  0
   -5.6809  -16.8670    0.2739 C   0  0
   -6.6160  -15.8084    0.8134 C   0  0
   -6.1831  -15.1987    1.9445 O   0  0
   -7.6821  -15.5196    0.2872 O   0  0
   -0.3447  -21.8217   -0.0543 O   0  0
   -0.6998  -22.9682   -0.8409 C   0  0
   -0.6009  -24.1899   -0.0265 C   0  0
   -2.1888  -15.3652    0.3715 C   0  0
   -2.3220  -16.8165   -0.0376 C   0  0
   -1.3074  -17.4683   -0.7911 C   0  0
   -0.1108  -16.6806   -1.2868 C   0  0
    0.1261  -15.3667   -0.5481 C   0  0
   -1.1693  -14.5829   -0.4484 C   0  0
   -0.5278  -25.1860    0.6410 C   0  0
   -0.4183  -26.4131    1.4449 C   0  0
   -1.7382  -27.1644    1.4859 C   0  0
    7.0902  -24.0482   -1.2153 C   0  0
    8.4782  -24.5540   -0.8520 C   0  0
    7.9835  -24.5267    1.4659 C   0  0
    6.5681  -24.0166    1.2249 C   0  0
    8.4492  -25.3027    0.3633 O   0  0
    7.0894  -22.2933    0.0217 H   0  0
    4.2832  -22.4307    1.3811 H   0  0
    5.2268  -21.1069    0.6724 H   0  0
    4.3700  -20.0465   -1.5279 H   0  0
    2.3311  -19.0917   -2.5561 H   0  0
    1.9188  -22.6005    0.9242 H   0  0
   -4.4494  -19.4616    0.3896 H   0  0
   -2.7633  -20.5622   -0.9863 H   0  0
   -5.4729  -16.6184   -0.7740 H   0  0
   -6.1883  -17.8330    0.3629 H   0  0
   -5.3150  -15.5871    2.1978 H   0  0
   -1.7384  -22.8302   -1.1601 H   0  0
   -0.0962  -23.0634   -1.7534 H   0  0
   -3.1544  -14.8540    0.2793 H   0  0
   -1.9009  -15.3392    1.4301 H   0  0
    0.8018  -17.2756   -1.1840 H   0  0
   -0.2596  -16.4696   -2.3533 H   0  0
    0.5166  -15.5669    0.4578 H   0  0
    0.8852  -14.7794   -1.0765 H   0  0
   -1.5642  -14.3897   -1.4541 H   0  0
   -0.9885  -13.6083    0.0190 H   0  0
    0.3578  -27.0625    1.0247 H   0  0
   -0.1114  -26.1596    2.4658 H   0  0
   -1.6402  -28.0722    2.0898 H   0  0
   -2.0579  -27.4574    0.4799 H   0  0
   -2.5312  -26.5477    1.9231 H   0  0
    6.4271  -24.9006   -1.4131 H   0  0
    7.1219  -23.4610   -2.1399 H   0  0
    8.8514  -25.2152   -1.6402 H   0  0
    9.1901  -23.7263   -0.7509 H   0  0
    8.6785  -23.6974    1.6449 H   0  0
    8.0005  -25.1666    2.3540 H   0  0
    6.2435  -23.4099    2.0770 H   0  0
    5.8722  -24.8627    1.1589 H   0  0
  1  2  1  0
  1 32  1  0
  1 35  1  0
  1 37  1  0
  2  3  1  0
  3  4  1  0
  3 38  1  0
  3 39  1  0
  4  5  2  0
  5  6  1  0
  5 40  1  0
  6  7  2  0
  6 41  1  0
  7  8  1  0
  7 10  1  0
  8  9  2  0
  8 20  1  0
  9  4  1  0
  9 42  1  0
 10 11  1  0
 11 25  2  0
 12 13  1  0
 12 15  1  0
 13 14  2  0
 13 43  1  0
 14 11  1  0
 14 44  1  0
 15 16  1  0
 16 17  1  0
 16 45  1  0
 16 46  1  0
 17 18  1  0
 17 19  2  0
 18 47  1  0
 20 21  1  0
 21 22  1  0
 21 48  1  0
 21 49  1  0
 22 29  3  0
 23 24  1  0
 23 28  1  0
 23 50  1  0
 23 51  1  0
 24 12  2  0
 24 25  1  0
 25 26  1  0
 26 27  1  0
 26 52  1  0
 26 53  1  0
 27 28  1  0
 27 54  1  0
 27 55  1  0
 28 56  1  0
 28 57  1  0
 29 30  1  0
 30 31  1  0
 30 58  1  0
 30 59  1  0
 31 60  1  0
 31 61  1  0
 31 62  1  0
 32 33  1  0
 32 63  1  0
 32 64  1  0
 33 36  1  0
 33 65  1  0
 33 66  1  0
 34 35  1  0
 34 67  1  0
 34 68  1  0
 35 69  1  0
 35 70  1  0
 36 34  1  0
M  END
> <Name>
CHEMBL497203

> <Clean Energy>
99.665901

> <chembl_id>
CHEMBL497203

> <chembl_pref_name>
None

> <efficacy>
0.96

> <Forcefield>
MMFF

> <ForcefieldBase>
MMFF

> <ForcefieldFFML>
<?xml version="1.0" encoding="UTF-8"?>
<!DOCTYPE ffml SYSTEM "Ffml.dtd">
<ffml version="1.0">
<forcefield name="MMFF" derivedFrom="MMFF" base="MMFF">
<atomTypes>
<atomType
name="C100"
element="C"
mass="12.011"
annotation=""/>
<atomType
name="O101"
element="O"
mass="16"
annotation=""/>
<atomType
name="S102"
element="S"
mass="32.066"
annotation=""/>
<atomType
name="H103"
element="H"
mass="1.008"
annotation=""/>
</atomTypes>
<parameters>
</parameters>
</forcefield>
</ffml>

> <Initial Potential Energy>
480.85041

> <Initial RMS Gradient>
93.55785

> <Minimization Criteria>
STEEPD> Minimization exiting with gradient tolerance ( 3.0000000) satisfied.

> <CHARMm Energy>
69.92029

> <Potential Energy>
69.92029

> <RMS Gradient>
0.10629

> <Bond Energy>
6.9843

> <Angle Energy>
13.28124

> <STRBend>
1.08751

> <Dihedral Energy>
12.1415

> <OOPLane>
0.22254

> <Van der Waals Energy>
60.46823

> <Electrostatic Energy>
-24.26502

> <Hydrogen Bond Energy>
0

> <Solvation Free Energy>
0

> <HasGasteigerCharges>
true

> <REMARK99>
REMARK  99  MacroMolecule created from Mol2 file
REMARK  99  CHEMBL497203
REMARK  99  PROTEIN
REMARK  99  GASTEIGER
REMARK  99
REMARK  99

$$$$
CHEMBL1819394
  SciTegic05292516403D

 67 69  0  0  0  0            999 V2000
    5.1187    3.4993   -0.9924 C   0  0
    4.0212    2.6463   -0.8924 C   0  0
    4.1979    1.2689   -0.9989 C   0  0
    5.4745    0.7414   -1.1988 C   0  0
    6.5836    1.5906   -1.2956 C   0  0
    6.3929    2.9765   -1.1990 C   0  0
    7.9650    1.0223   -1.4931 C   0  0
    8.8976    1.3479   -0.3266 C   0  0
   10.1065    0.5930   -0.5013 O   0  0
   10.9770    0.8645    0.5207 C   0  0
   10.8523    0.3095    1.7990 C   0  0
   11.7401    0.7021    2.8009 C   0  0
   12.7898    1.5745    2.5111 C   0  0
   12.9651    2.0665    1.2100 C   0  0
   12.0441    1.7122    0.2191 C   0  0
   14.1508    2.9379    0.8758 C   0  0
   15.4423    2.1120    0.7490 C   0  0  2  0  0  0
   16.6083    3.0282    1.0660 C   0  0
   16.7668    3.2402    2.3978 O   0  0
   17.3525    3.5447    0.2468 O   0  0
   15.5826    1.4795   -0.6497 C   0  0
   16.7285    0.4624   -0.7213 C   0  0
   16.8173   -0.1733   -2.1092 C   0  0
   17.9474   -1.1873   -2.1866 C   0  0
    9.9016   -0.5933    2.1935 O   0  0
    9.6404   -1.6246    1.2357 C   0  0
    9.2233   -2.8858    1.9863 C   0  0
    8.7715   -3.9546    1.0252 C   0  0
    7.4119   -4.1126    0.7320 C   0  0
    7.0002   -5.0600   -0.2052 C   0  0
    7.9433   -5.8502   -0.8573 C   0  0
    9.2992   -5.6984   -0.5735 C   0  0
    9.7138   -4.7550    0.3639 C   0  0
    4.9726    4.5733   -0.9173 H   0  0
    3.0255    3.0566   -0.7396 H   0  0
    3.3385    0.6058   -0.9312 H   0  0
    5.5831   -0.3380   -1.2855 H   0  0
    7.2389    3.6579   -1.2793 H   0  0
    7.9147   -0.0665   -1.6238 H   0  0
    8.3884    1.4055   -2.4301 H   0  0
    9.1295    2.4208   -0.3139 H   0  0
    8.4118    1.0860    0.6219 H   0  0
   11.6267    0.3052    3.8068 H   0  0
   13.4778    1.8509    3.3071 H   0  0
   12.1485    2.0917   -0.7947 H   0  0
   13.9629    3.5020   -0.0471 H   0  0
   14.2364    3.6985    1.6633 H   0  0
   15.4630    1.2977    1.4857 H   0  0
   16.0869    2.7833    2.9313 H   0  0
   14.6522    0.9642   -0.9150 H   0  0
   15.7383    2.2600   -1.4051 H   0  0
   17.6819    0.9476   -0.4837 H   0  0
   16.5694   -0.3211    0.0296 H   0  0
   15.8713   -0.6707   -2.3527 H   0  0
   16.9793    0.6043   -2.8649 H   0  0
   17.9934   -1.6278   -3.1874 H   0  0
   17.7976   -1.9972   -1.4656 H   0  0
   18.9130   -0.7156   -1.9782 H   0  0
    8.8195   -1.3054    0.5851 H   0  0
   10.5236   -1.8448    0.6211 H   0  0
   10.0553   -3.2538    2.5999 H   0  0
    8.4231   -2.6528    2.7005 H   0  0
    6.6560   -3.5074    1.2287 H   0  0
    5.9427   -5.1855   -0.4253 H   0  0
    7.6232   -6.5944   -1.5824 H   0  0
   10.0201   -6.3329   -1.0827 H   0  0
   10.7776   -4.6378    0.5688 H   0  0
  1  2  2  0
  1 34  1  0
  2  3  1  0
  2 35  1  0
  3  4  2  0
  3 36  1  0
  4  5  1  0
  4 37  1  0
  5  6  2  0
  5  7  1  0
  6  1  1  0
  6 38  1  0
  7  8  1  0
  7 39  1  0
  7 40  1  0
  8  9  1  0
  8 41  1  0
  8 42  1  0
  9 10  1  0
 10 11  2  0
 11 12  1  0
 11 25  1  0
 12 13  2  0
 12 43  1  0
 13 14  1  0
 13 44  1  0
 14 15  2  0
 14 16  1  0
 15 10  1  0
 15 45  1  0
 16 17  1  0
 16 46  1  0
 16 47  1  0
 17 18  1  0
 17 21  1  0
 17 48  1  0
 18 19  1  0
 18 20  2  0
 19 49  1  0
 21 22  1  0
 21 50  1  0
 21 51  1  0
 22 23  1  0
 22 52  1  0
 22 53  1  0
 23 24  1  0
 23 54  1  0
 23 55  1  0
 24 56  1  0
 24 57  1  0
 24 58  1  0
 25 26  1  0
 26 27  1  0
 26 59  1  0
 26 60  1  0
 27 28  1  0
 27 61  1  0
 27 62  1  0
 28 29  2  0
 29 30  1  0
 29 63  1  0
 30 31  2  0
 30 64  1  0
 31 32  1  0
 31 65  1  0
 32 33  2  0
 32 66  1  0
 33 28  1  0
 33 67  1  0
M  END
> <Name>
CHEMBL1819394

> <Clean Energy>
14.0946

> <chembl_id>
CHEMBL1819394

> <chembl_pref_name>
None

> <efficacy>
0.949667616

> <Forcefield>
MMFF

> <ForcefieldBase>
MMFF

> <ForcefieldFFML>
<?xml version="1.0" encoding="UTF-8"?>
<!DOCTYPE ffml SYSTEM "Ffml.dtd">
<ffml version="1.0">
<forcefield name="MMFF" derivedFrom="MMFF" base="MMFF">
<atomTypes>
<atomType
name="C100"
element="C"
mass="12.011"
annotation=""/>
<atomType
name="O101"
element="O"
mass="16"
annotation=""/>
<atomType
name="H102"
element="H"
mass="1.008"
annotation=""/>
</atomTypes>
<parameters>
</parameters>
</forcefield>
</ffml>

> <Initial Potential Energy>
161.91181

> <Initial RMS Gradient>
26.33136

> <Minimization Criteria>
STEEPD> Minimization exiting with gradient tolerance ( 3.0000000) satisfied.

> <CHARMm Energy>
60.97287

> <Potential Energy>
60.97287

> <RMS Gradient>
0.04284

> <Bond Energy>
5.82414

> <Angle Energy>
9.98599

> <STRBend>
0.27772

> <Dihedral Energy>
4.45237

> <OOPLane>
0.04136

> <Van der Waals Energy>
66.74073

> <Electrostatic Energy>
-26.34945

> <Hydrogen Bond Energy>
0

> <Solvation Free Energy>
0

> <HasGasteigerCharges>
true

> <REMARK99>
REMARK  99  MacroMolecule created from Mol2 file
REMARK  99  CHEMBL1819394
REMARK  99  PROTEIN
REMARK  99  GASTEIGER
REMARK  99
REMARK  99

$$$$
CHEMBL5085496
  SciTegic05292516403D

 51 53  0  0  0  0            999 V2000
   23.7501  -21.0192   -0.9973 C   0  0
   22.7187  -20.7793    0.1184 C   0  0
   22.6815  -21.9977    1.0560 C   0  0
   18.3311  -21.3992    1.0873 C   0  0
   17.8588  -22.4024    0.2315 C   0  0
   18.6634  -22.7966   -0.8441 C   0  0
   19.8963  -22.1706   -1.0968 C   0  0
   20.3425  -21.1523   -0.2339 C   0  0
   19.5440  -20.7361    0.8437 C   0  0
   19.8978  -19.5657    1.7140 C   0  0
   20.7036  -22.6022   -2.2889 C   0  0
   21.4844  -20.4784   -0.5705 O   0  0
   23.1635  -19.5050    0.8783 C   0  0
   24.3245  -19.6230    1.5711 O   0  0
   22.5630  -18.4370    0.8689 O   0  0
   16.4834  -23.0064    0.4327 C   0  0
   15.4724  -21.9902    0.6391 N   0  0
   14.9804  -21.1209   -0.3468 C   0  0
   14.2237  -20.1876    0.3453 N   0  0
   14.2804  -20.5865    1.6369 C   0  0
   15.0044  -21.6338    1.8799 N   0  0
   15.2239  -21.1974   -1.5417 O   0  0
   13.5625  -19.0470   -0.1694 C   0  0
   13.4002  -18.8470   -1.5494 C   0  0
   12.7209  -17.7258   -2.0463 C   0  0
   12.2025  -16.7791   -1.1699 C   0  0
   12.3864  -16.9349    0.1988 C   0  0
   13.0511  -18.0628    0.6943 C   0  0
   11.3339  -15.4222   -1.7731 Cl  0  0
   23.4664  -21.8749   -1.6181 H   0  0
   24.7550  -21.2062   -0.6045 H   0  0
   23.8075  -20.1518   -1.6666 H   0  0
   22.0297  -21.8221    1.9177 H   0  0
   23.6727  -22.2404    1.4529 H   0  0
   22.3129  -22.8905    0.5403 H   0  0
   17.7115  -21.0847    1.9262 H   0  0
   18.3046  -23.5651   -1.5264 H   0  0
   19.0832  -19.3158    2.4029 H   0  0
   20.0711  -18.6779    1.0992 H   0  0
   20.7755  -19.7904    2.3244 H   0  0
   21.5302  -23.2429   -1.9674 H   0  0
   21.0983  -21.7363   -2.8301 H   0  0
   20.0929  -23.1693   -2.9996 H   0  0
   24.8185  -20.4590    1.4766 H   0  0
   16.1930  -23.5768   -0.4565 H   0  0
   16.4940  -23.6853    1.2924 H   0  0
   13.7360  -20.0367    2.4123 H   0  0
   13.7883  -19.5582   -2.2747 H   0  0
   12.5910  -17.6052   -3.1195 H   0  0
   12.0115  -16.1852    0.8911 H   0  0
   13.1854  -18.1208    1.7704 H   0  0
  1 30  1  0
  1 31  1  0
  1 32  1  0
  2  1  1  0
  2 13  1  0
  3  2  1  0
  3 33  1  0
  3 34  1  0
  3 35  1  0
  4  5  2  0
  4 36  1  0
  5  6  1  0
  5 16  1  0
  6  7  2  0
  6 37  1  0
  7  8  1  0
  7 11  1  0
  8  9  2  0
  8 12  1  0
  9  4  1  0
  9 10  1  0
 10 38  1  0
 10 39  1  0
 10 40  1  0
 11 41  1  0
 11 42  1  0
 11 43  1  0
 12  2  1  0
 13 14  1  0
 13 15  2  0
 14 44  1  0
 16 17  1  0
 16 45  1  0
 16 46  1  0
 17 18  1  0
 18 19  1  0
 18 22  2  0
 19 20  1  0
 19 23  1  0
 20 21  2  0
 20 47  1  0
 21 17  1  0
 23 24  2  0
 24 25  1  0
 24 48  1  0
 25 26  2  0
 25 49  1  0
 26 27  1  0
 26 29  1  0
 27 28  2  0
 27 50  1  0
 28 23  1  0
 28 51  1  0
M  END
> <Name>
CHEMBL5085496

> <Clean Energy>
59.698502

> <chembl_id>
CHEMBL5085496

> <chembl_pref_name>
None

> <efficacy>
1.8

> <Forcefield>
MMFF

> <ForcefieldBase>
MMFF

> <ForcefieldFFML>
<?xml version="1.0" encoding="UTF-8"?>
<!DOCTYPE ffml SYSTEM "Ffml.dtd">
<ffml version="1.0">
<forcefield name="MMFF" derivedFrom="MMFF" base="MMFF">
<atomTypes>
<atomType
name="C100"
element="C"
mass="12.011"
annotation=""/>
<atomType
name="O101"
element="O"
mass="16"
annotation=""/>
<atomType
name="N102"
element="N"
mass="14.007"
annotation=""/>
<atomType
name="Cl103"
element="Cl"
mass="35.453"
annotation=""/>
<atomType
name="H104"
element="H"
mass="1.008"
annotation=""/>
</atomTypes>
<parameters>
</parameters>
</forcefield>
</ffml>

> <Initial Potential Energy>
209.78152

> <Initial RMS Gradient>
31.00038

> <Minimization Criteria>
STEEPD> Minimization exiting with gradient tolerance ( 3.0000000) satisfied.

> <CHARMm Energy>
91.19377

> <Potential Energy>
91.19377

> <RMS Gradient>
0.12611

> <Bond Energy>
6.84659

> <Angle Energy>
29.10368

> <STRBend>
-0.20402

> <Dihedral Energy>
9.75318

> <OOPLane>
0.28662

> <Van der Waals Energy>
53.24144

> <Electrostatic Energy>
-7.83373

> <Hydrogen Bond Energy>
0

> <Solvation Free Energy>
0

> <HasGasteigerCharges>
true

> <REMARK99>
REMARK  99  MacroMolecule created from Mol2 file
REMARK  99  CHEMBL5085496
REMARK  99  PROTEIN
REMARK  99  GASTEIGER
REMARK  99
REMARK  99

$$$$
CHEMBL147721
  SciTegic05292516403D

 84 86  0  0  0  0            999 V2000
    1.8128   -1.2242    0.6630 C   0  0
    9.8446   -1.8543    0.2510 C   0  0
  -10.2803   -4.4334   -0.6839 C   0  0
   21.5674    0.7326   -1.0822 C   0  0
    3.0037   -1.3595    0.5781 C   0  0
    8.6493   -1.7438    0.3069 C   0  0
   -8.9506   -3.6667   -0.7180 C   0  0  2  0  0  0
   20.4632   -0.2428   -0.6507 C   0  0  2  0  0  0
    0.4135   -1.0057    0.7932 C   0  0
   11.2530   -2.0330    0.1796 C   0  0
  -10.3956   -5.6444   -0.8005 O   0  0
   22.7663    0.5217   -1.1695 O   0  0
   19.8537    0.2574    0.6715 C   0  0
   -8.0819   -4.1158    0.4639 C   0  0
   12.0887   -1.4086    1.0220 C   0  0
   -0.4553   -2.0252    0.8512 C   0  0
    7.2222   -1.6460    0.3735 C   0  0
    4.4290   -1.4745    0.5018 C   0  0
   18.3531    0.0594    0.7198 C   0  0
   -6.6324   -3.6900    0.3557 C   0  0
   21.0682    1.9412   -1.4301 O   0  0
  -11.3477   -3.6096   -0.5094 O   0  0
   15.5619   -0.3046    0.7937 C   0  0
   -3.9187   -2.9330    0.1886 C   0  0
    6.5513   -1.9970    1.5487 C   0  0
    5.1565   -1.9119    1.6126 C   0  0
    6.4946   -1.2115   -0.7380 C   0  0
    5.0997   -1.1263   -0.6742 C   0  0
   20.9261   -1.5810   -0.4356 O   0  0
   -9.2841   -2.2637   -0.5945 O   0  0
   -6.1322   -2.6358    1.1328 C   0  0
   17.8062   -1.2067    0.9599 C   0  0
   17.4919    1.1414    0.5072 C   0  0
   -5.7641   -4.3495   -0.5216 C   0  0
   -4.7846   -2.2580    1.0487 C   0  0
   16.4183   -1.3878    0.9981 C   0  0
   16.1085    0.9573    0.5478 C   0  0
   -4.4219   -3.9673   -0.6055 C   0  0
   14.1928   -0.3385    0.8092 O   0  0
   -2.5832   -2.6755    0.0238 O   0  0
   -1.9411   -1.8827    1.0257 C   0  0
   13.5761   -1.6058    1.0235 C   0  0
   21.1846   -2.2823   -1.6498 C   0  0
   -8.5458   -1.4494   -1.5097 C   0  0
   21.6739   -3.6734   -1.2979 C   0  0
   -8.8871    0.0012   -1.2338 C   0  0
   -8.4914   -3.8720   -1.6930 H   0  0
   19.7125   -0.2515   -1.4525 H   0  0
    0.0919    0.0291    0.8664 H   0  0
   11.6313   -2.7133   -0.5780 H   0  0
   20.2976   -0.2695    1.5267 H   0  0
   20.0642    1.3211    0.8394 H   0  0
   -8.5020   -3.7241    1.3998 H   0  0
   -8.1000   -5.2092    0.5620 H   0  0
   11.6927   -0.7319    1.7765 H   0  0
   -0.0933   -3.0497    0.7846 H   0  0
   21.8600    2.4539   -1.6974 H   0  0
  -10.9963   -2.6904   -0.4313 H   0  0
    7.1157   -2.3335    2.4162 H   0  0
    4.6368   -2.1855    2.5289 H   0  0
    7.0142   -0.9356   -1.6536 H   0  0
    4.5359   -0.7872   -1.5411 H   0  0
   -6.7919   -2.1001    1.8138 H   0  0
   18.4644   -2.0599    1.1205 H   0  0
   17.8903    2.1352    0.3126 H   0  0
   -6.1208   -5.1746   -1.1357 H   0  0
   -4.4424   -1.4332    1.6652 H   0  0
   16.0419   -2.3865    1.1919 H   0  0
   15.4474    1.8057    0.3868 H   0  0
   -3.7548   -4.4939   -1.2843 H   0  0
   -2.2506   -0.8366    0.9209 H   0  0
   -2.1985   -2.2495    2.0268 H   0  0
   13.8737   -2.3074    0.2348 H   0  0
   13.8665   -2.0061    2.0022 H   0  0
   20.2627   -2.3532   -2.2373 H   0  0
   21.9457   -1.7620   -2.2393 H   0  0
   -7.4709   -1.6065   -1.3853 H   0  0
   -8.8301   -1.7097   -2.5350 H   0  0
   21.8821   -4.2539   -2.2010 H   0  0
   20.9263   -4.2052   -0.7000 H   0  0
   22.5856   -3.6197   -0.6938 H   0  0
   -8.3517    0.6653   -1.9180 H   0  0
   -8.6254    0.2687   -0.2046 H   0  0
   -9.9631    0.1723   -1.3438 H   0  0
  2  6  3  0
  3  7  1  0
  4  8  1  0
  5  1  3  0
  6 17  1  0
  7 14  1  0
  7 30  1  0
  7 47  1  0
  8 13  1  0
  8 29  1  0
  8 48  1  0
  9  1  1  0
  9 49  1  0
 10  2  1  0
 10 50  1  0
 11  3  2  0
 12  4  2  0
 13 19  1  0
 13 51  1  0
 13 52  1  0
 14 20  1  0
 14 53  1  0
 14 54  1  0
 15 10  2  0
 15 55  1  0
 16  9  2  0
 16 56  1  0
 17 25  2  0
 17 27  1  0
 18  5  1  0
 19 33  1  0
 20 34  1  0
 21  4  1  0
 21 57  1  0
 22  3  1  0
 22 58  1  0
 23 39  1  0
 24 40  1  0
 25 26  1  0
 25 59  1  0
 26 18  2  0
 26 60  1  0
 27 28  2  0
 27 61  1  0
 28 18  1  0
 28 62  1  0
 31 20  2  0
 31 35  1  0
 31 63  1  0
 32 19  2  0
 32 36  1  0
 32 64  1  0
 33 37  2  0
 33 65  1  0
 34 38  2  0
 34 66  1  0
 35 24  2  0
 35 67  1  0
 36 23  2  0
 36 68  1  0
 37 23  1  0
 37 69  1  0
 38 24  1  0
 38 70  1  0
 39 42  1  0
 40 41  1  0
 41 16  1  0
 41 71  1  0
 41 72  1  0
 42 15  1  0
 42 73  1  0
 42 74  1  0
 43 29  1  0
 43 75  1  0
 43 76  1  0
 44 30  1  0
 44 77  1  0
 44 78  1  0
 45 43  1  0
 45 79  1  0
 45 80  1  0
 45 81  1  0
 46 44  1  0
 46 82  1  0
 46 83  1  0
 46 84  1  0
M  END
> <Name>
CHEMBL147721

> <Clean Energy>
172.419006

> <chembl_id>
CHEMBL147721

> <chembl_pref_name>
None

> <efficacy>
1.03

> <Forcefield>
MMFF

> <ForcefieldBase>
MMFF

> <ForcefieldFFML>
<?xml version="1.0" encoding="UTF-8"?>
<!DOCTYPE ffml SYSTEM "Ffml.dtd">
<ffml version="1.0">
<forcefield name="MMFF" derivedFrom="MMFF" base="MMFF">
<atomTypes>
<atomType
name="C100"
element="C"
mass="12.011"
annotation=""/>
<atomType
name="O101"
element="O"
mass="16"
annotation=""/>
<atomType
name="H102"
element="H"
mass="1.008"
annotation=""/>
</atomTypes>
<parameters>
</parameters>
</forcefield>
</ffml>

> <Initial Potential Energy>
531.40357

> <Initial RMS Gradient>
29.58618

> <Minimization Criteria>
STEEPD> Minimization exiting with gradient tolerance ( 3.0000000) satisfied.

> <CHARMm Energy>
93.34165

> <Potential Energy>
93.34165

> <RMS Gradient>
0.02832

> <Bond Energy>
7.40481

> <Angle Energy>
21.23475

> <STRBend>
0.79484

> <Dihedral Energy>
-2.4097

> <OOPLane>
0.04122

> <Van der Waals Energy>
73.9014

> <Electrostatic Energy>
-7.62567

> <Hydrogen Bond Energy>
0

> <Solvation Free Energy>
0

> <HasGasteigerCharges>
true

> <REMARK99>
REMARK  99  MacroMolecule created from Mol2 file
REMARK  99  CHEMBL147721
REMARK  99  PROTEIN
REMARK  99  GASTEIGER
REMARK  99
REMARK  99

$$$$
CHEMBL4159798
  SciTegic05292516403D

 46 49  0  0  0  0            999 V2000
   12.5251   -4.1747    0.3919 C   0  0
   13.6353   -4.6931    1.0234 O   0  0
   14.8459   -4.0704    0.8040 C   0  0
   15.9049   -4.8788    0.3675 C   0  0
   16.2733   -2.1085    0.8681 C   0  0
   15.0283   -2.7118    1.0778 C   0  0
   17.3381   -2.8946    0.4026 C   0  0
   17.1445   -4.2527    0.1672 C   0  0
   18.3799   -4.6981   -0.2485 N   0  0
   19.2484   -3.6253   -0.2551 C   0  0
   18.6270   -2.5245    0.1262 N   0  0
   18.7138   -6.0595   -0.5930 C   0  0
   20.6886   -3.6990   -0.6555 C   0  0
   21.3348   -4.6073    0.2393 O   0  0
   22.6968   -4.5316    0.3116 C   0  0
   23.2550   -5.1283    1.4463 C   0  0
   24.6358   -5.1232    1.6512 C   0  0
   25.4721   -4.5158    0.7175 C   0  0
   24.9143   -3.9181   -0.4186 C   0  0
   23.5311   -3.9416   -0.6362 C   0  0
   11.3121   -4.2297    1.0816 C   0  0
   10.1339   -3.7658    0.4999 C   0  0
   10.1610   -3.2487   -0.7952 C   0  0
   11.3661   -3.2055   -1.5007 C   0  0
   12.5461   -3.6745   -0.9138 C   0  0
   25.7746   -3.2715   -1.4317 C   0  0
   26.6893   -2.4449   -0.8824 O   0  0
   25.6369   -3.4442   -2.6288 O   0  0
   11.2656   -4.7304    2.3253 F   0  0
   15.7554   -5.9376    0.1878 H   0  0
   16.4333   -1.0543    1.0634 H   0  0
   14.2051   -2.1128    1.4578 H   0  0
   19.4173   -6.0605   -1.4288 H   0  0
   17.8112   -6.5956   -0.8948 H   0  0
   19.1583   -6.5343    0.2850 H   0  0
   20.7775   -4.0576   -1.6870 H   0  0
   21.1201   -2.6934   -0.5759 H   0  0
   22.6032   -5.5990    2.1802 H   0  0
   25.0526   -5.6001    2.5351 H   0  0
   26.5491   -4.5385    0.8662 H   0  0
   23.1397   -3.4984   -1.5477 H   0  0
    9.2029   -3.8150    1.0578 H   0  0
    9.2425   -2.8882   -1.2549 H   0  0
   11.3902   -2.8122   -2.5144 H   0  0
   13.4697   -3.6518   -1.4864 H   0  0
   26.5415   -2.2696    0.0670 H   0  0
  1  2  1  0
  1 21  2  0
  2  3  1  0
  3  4  2  0
  4  8  1  0
  4 30  1  0
  5  6  2  0
  5 31  1  0
  6  3  1  0
  6 32  1  0
  7  5  1  0
  7  8  2  0
  8  9  1  0
  9 10  1  0
  9 12  1  0
 10 11  2  0
 10 13  1  0
 11  7  1  0
 12 33  1  0
 12 34  1  0
 12 35  1  0
 13 14  1  0
 13 36  1  0
 13 37  1  0
 14 15  1  0
 15 16  2  0
 16 17  1  0
 16 38  1  0
 17 18  2  0
 17 39  1  0
 18 19  1  0
 18 40  1  0
 19 20  2  0
 19 26  1  0
 20 15  1  0
 20 41  1  0
 21 22  1  0
 21 29  1  0
 22 23  2  0
 22 42  1  0
 23 24  1  0
 23 43  1  0
 24 25  2  0
 24 44  1  0
 25  1  1  0
 25 45  1  0
 26 27  1  0
 26 28  2  0
 27 46  1  0
M  END
> <Name>
CHEMBL4159798

> <Clean Energy>
41.292198

> <chembl_id>
CHEMBL4159798

> <chembl_pref_name>
None

> <efficacy>
1.25

> <Forcefield>
MMFF

> <ForcefieldBase>
MMFF

> <ForcefieldFFML>
<?xml version="1.0" encoding="UTF-8"?>
<!DOCTYPE ffml SYSTEM "Ffml.dtd">
<ffml version="1.0">
<forcefield name="MMFF" derivedFrom="MMFF" base="MMFF">
<atomTypes>
<atomType
name="C100"
element="C"
mass="12.011"
annotation=""/>
<atomType
name="O101"
element="O"
mass="16"
annotation=""/>
<atomType
name="N102"
element="N"
mass="14.007"
annotation=""/>
<atomType
name="F103"
element="F"
mass="18.998"
annotation=""/>
<atomType
name="H104"
element="H"
mass="1.008"
annotation=""/>
</atomTypes>
<parameters>
</parameters>
</forcefield>
</ffml>

> <Initial Potential Energy>
160.75245

> <Initial RMS Gradient>
34.97399

> <Minimization Criteria>
CONJUG> Minimization exiting with gradient tolerance ( 0.0100000) satisfied.

> <CHARMm Energy>
74.23148

> <Potential Energy>
74.23148

> <RMS Gradient>
0.00964

> <Bond Energy>
4.65463

> <Angle Energy>
15.23178

> <STRBend>
-0.04347

> <Dihedral Energy>
11.95218

> <OOPLane>
0.09971

> <Van der Waals Energy>
55.51438

> <Electrostatic Energy>
-13.17773

> <Hydrogen Bond Energy>
0

> <Solvation Free Energy>
0

> <HasGasteigerCharges>
true

> <REMARK99>
REMARK  99  MacroMolecule created from Mol2 file
REMARK  99  CHEMBL4159798
REMARK  99  PROTEIN
REMARK  99  GASTEIGER
REMARK  99
REMARK  99

$$$$
CHEMBL1935497
  SciTegic05292516403D

 72 74  0  0  0  0            999 V2000
   -6.8113   -9.7476   -1.4906 C   0  0
   -2.0333  -10.1258    2.0766 C   0  0
   -2.9345   -9.2952    2.7005 C   0  0
   -4.0636   -9.2496    1.9348 O   0  0
   -3.8103  -10.0725    0.8504 C   0  0
   -2.6044  -10.6204    0.9265 N   0  0
   -2.9418   -8.5025    3.9412 C   0  0
   -0.6550  -10.5149    2.4714 C   0  0
    0.4164   -9.7077    1.7407 C   0  0
    1.7003  -10.1614    2.1988 O   0  0
    2.7002   -9.8992    1.3042 C   0  0
    3.4663  -10.9834    0.8905 C   0  0
    4.0253   -8.4373   -0.0878 C   0  0
    2.9910   -8.6217    0.8353 C   0  0
   -4.7156  -10.2802   -0.2237 C   0  0
   -5.8515   -9.5785   -0.3443 C   0  0
    4.7795   -9.5289   -0.5346 C   0  0
    4.4995  -10.8076   -0.0409 C   0  0
    5.2056  -12.0074   -0.5881 C   0  0
    6.5404  -11.7651   -1.1424 N   0  0
    6.9884  -10.3758   -1.4440 C   0  0  1  0  0  0
    5.8293   -9.3768   -1.6038 C   0  0
    7.3829  -12.8020   -1.5331 C   0  0
    6.8741  -14.1764   -1.3310 C   0  0
    8.5223  -12.6131   -1.9467 O   0  0
    7.6514  -15.0770   -0.7142 C   0  0
    7.1609  -16.3906   -0.3715 C   0  0
    7.8912  -17.2811    0.3114 C   0  0
    7.3967  -18.6368    0.6995 C   0  0
    8.0356   -9.8189   -0.4545 C   0  0
    8.3924  -10.6685    0.5394 O   0  0
    8.5546   -8.7127   -0.5582 O   0  0
   -8.2092  -10.3087   -1.1118 C   0  0
   -8.0887  -11.7098   -0.4867 C   0  0
   -8.9389   -9.3762   -0.1289 C   0  0
   -9.0511  -10.4162   -2.3981 C   0  0
   -6.3615  -10.3948   -2.2560 H   0  0
   -6.9313   -8.7648   -1.9659 H   0  0
   -3.4446   -9.0539    4.7414 H   0  0
   -3.4667   -7.5534    3.7945 H   0  0
   -1.9227   -8.2756    4.2686 H   0  0
   -0.5231  -10.4025    3.5547 H   0  0
   -0.5049  -11.5833    2.2705 H   0  0
    0.3112   -9.8493    0.6563 H   0  0
    0.3076   -8.6410    1.9716 H   0  0
    3.2292  -11.9734    1.2735 H   0  0
    4.2332   -7.4362   -0.4606 H   0  0
    2.4254   -7.7628    1.1813 H   0  0
   -4.4293  -11.0220   -0.9616 H   0  0
   -6.1054   -8.8227    0.3967 H   0  0
    5.3053  -12.7624    0.2009 H   0  0
    4.5920  -12.4340   -1.3912 H   0  0
    7.5272  -10.4188   -2.4008 H   0  0
    5.3358   -9.5551   -2.5683 H   0  0
    6.2057   -8.3472   -1.6211 H   0  0
    5.8665  -14.4033   -1.6490 H   0  0
    8.6667  -14.8163   -0.4159 H   0  0
    6.1396  -16.6389   -0.6600 H   0  0
    8.9135  -17.0521    0.6097 H   0  0
    7.4239  -18.7453    1.7880 H   0  0
    8.0382  -19.4070    0.2606 H   0  0
    6.3702  -18.8160    0.3643 H   0  0
    7.8809  -11.4972    0.4597 H   0  0
   -9.0776  -12.1407   -0.2928 H   0  0
   -7.5529  -11.6831    0.4682 H   0  0
   -7.5532  -12.3947   -1.1538 H   0  0
   -9.9592   -9.7278    0.0632 H   0  0
   -9.0086   -8.3584   -0.5287 H   0  0
   -8.4278   -9.3242    0.8381 H   0  0
  -10.0517  -10.8099   -2.1868 H   0  0
   -8.5783  -11.0849   -3.1262 H   0  0
   -9.1730   -9.4365   -2.8738 H   0  0
  1 33  1  0
  1 37  1  0
  1 38  1  0
  2  3  2  0
  2  8  1  0
  3  4  1  0
  3  7  1  0
  4  5  1  0
  5  6  2  0
  5 15  1  0
  6  2  1  0
  7 39  1  0
  7 40  1  0
  7 41  1  0
  8  9  1  0
  8 42  1  0
  8 43  1  0
  9 10  1  0
  9 44  1  0
  9 45  1  0
 10 11  1  0
 11 12  2  0
 12 18  1  0
 12 46  1  0
 13 14  2  0
 13 47  1  0
 14 11  1  0
 14 48  1  0
 15 16  2  0
 15 49  1  0
 16  1  1  0
 16 50  1  0
 17 13  1  0
 17 18  2  0
 17 22  1  0
 18 19  1  0
 19 20  1  0
 19 51  1  0
 19 52  1  0
 20 21  1  0
 20 23  1  0
 21 22  1  0
 21 30  1  0
 21 53  1  0
 22 54  1  0
 22 55  1  0
 23 24  1  0
 23 25  2  0
 24 26  2  0
 24 56  1  0
 26 27  1  0
 26 57  1  0
 27 28  2  0
 27 58  1  0
 28 29  1  0
 28 59  1  0
 29 60  1  0
 29 61  1  0
 29 62  1  0
 30 31  1  0
 30 32  2  0
 31 63  1  0
 33 34  1  0
 33 35  1  0
 33 36  1  0
 34 64  1  0
 34 65  1  0
 34 66  1  0
 35 67  1  0
 35 68  1  0
 35 69  1  0
 36 70  1  0
 36 71  1  0
 36 72  1  0
M  END
> <Name>
CHEMBL1935497

> <Clean Energy>
54.818901

> <chembl_id>
CHEMBL1935497

> <chembl_pref_name>
None

> <efficacy>
0.968421053

> <Forcefield>
MMFF

> <ForcefieldBase>
MMFF

> <ForcefieldFFML>
<?xml version="1.0" encoding="UTF-8"?>
<!DOCTYPE ffml SYSTEM "Ffml.dtd">
<ffml version="1.0">
<forcefield name="MMFF" derivedFrom="MMFF" base="MMFF">
<atomTypes>
<atomType
name="C100"
element="C"
mass="12.011"
annotation=""/>
<atomType
name="O101"
element="O"
mass="16"
annotation=""/>
<atomType
name="N102"
element="N"
mass="14.007"
annotation=""/>
<atomType
name="H103"
element="H"
mass="1.008"
annotation=""/>
</atomTypes>
<parameters>
</parameters>
</forcefield>
</ffml>

> <Initial Potential Energy>
126.38412

> <Initial RMS Gradient>
20.04935

> <Minimization Criteria>
CONJUG> Minimization exiting with gradient tolerance ( 0.0100000) satisfied.

> <CHARMm Energy>
28.07527

> <Potential Energy>
28.07527

> <RMS Gradient>
0.00879

> <Bond Energy>
6.81089

> <Angle Energy>
15.35616

> <STRBend>
0.3848

> <Dihedral Energy>
1.41597

> <OOPLane>
0.3064

> <Van der Waals Energy>
55.74351

> <Electrostatic Energy>
-51.94245

> <Hydrogen Bond Energy>
0

> <Solvation Free Energy>
0

> <HasGasteigerCharges>
true

> <REMARK99>
REMARK  99  MacroMolecule created from Mol2 file
REMARK  99  CHEMBL1935497
REMARK  99  PROTEIN
REMARK  99  GASTEIGER
REMARK  99
REMARK  99

$$$$
CHEMBL1935498
  SciTegic05292516403D

 72 74  0  0  0  0            999 V2000
    4.4709  -11.6690   -0.5776 C   0  0
   10.2475  -13.0123    0.4714 C   0  0
   10.1555  -12.4813   -0.7932 C   0  0
    8.8454  -12.1806   -1.0238 O   0  0
    8.1656  -12.5496    0.1295 C   0  0
    8.9987  -13.0385    1.0420 N   0  0
   11.1246  -12.1739   -1.8621 C   0  0
   11.4432  -13.4899    1.2092 C   0  0
   12.3397  -12.3384    1.6422 C   0  0
   13.5628  -12.8849    2.1488 O   0  0
   14.6685  -12.1046    1.9473 C   0  0
   15.8819  -12.7904    1.8693 C   0  0
   15.8138  -10.0098    1.5578 C   0  0
   14.6432  -10.7130    1.8317 C   0  0
    6.7608  -12.4090    0.3017 C   0  0
    5.9748  -11.8656   -0.6432 C   0  0
   17.0147  -10.7008    1.4146 C   0  0
   17.0600  -12.0916    1.6018 C   0  0
   18.4057  -12.7577    1.5132 C   0  0
   19.1090  -12.2790    0.3215 N   0  0
   19.2196  -10.7985    0.1620 C   0  0  1  0  0  0
   18.3082   -9.9945    1.1258 C   0  0
   19.6014  -13.0976   -0.6705 C   0  0
   19.1952  -14.5177   -0.6810 C   0  0
   20.4288  -12.6783   -1.4839 O   0  0
   20.0874  -15.4562   -1.0290 C   0  0
   19.7484  -16.8585   -1.0703 C   0  0
   20.6396  -17.8036   -1.3951 C   0  0
   20.3312  -19.2643   -1.4456 C   0  0
   20.6277  -10.1943    0.3103 C   0  0
   21.6588  -10.9671   -0.0773 O   0  0
   20.8166   -9.0381    0.6703 O   0  0
    4.1243  -10.1947   -0.2725 C   0  0
    4.6703   -9.2046   -1.2959 C   0  0
    3.7720  -12.6315    0.4111 C   0  0
    2.2557  -12.6666    0.2625 C   0  0
    4.0893  -11.9088   -1.5799 H   0  0
   10.6896  -12.3663   -2.8477 H   0  0
   12.0253  -12.7876   -1.7650 H   0  0
   11.4195  -11.1213   -1.8151 H   0  0
   11.1430  -14.0712    2.0895 H   0  0
   12.0097  -14.1855    0.5769 H   0  0
   12.5207  -11.6930    0.7731 H   0  0
   11.8567  -11.7467    2.4291 H   0  0
   15.8906  -13.8692    2.0002 H   0  0
   15.7785   -8.9275    1.4579 H   0  0
   13.7226  -10.1510    1.9537 H   0  0
    6.3653  -12.7585    1.2477 H   0  0
    6.4378  -11.5220   -1.5694 H   0  0
   19.0085  -12.4812    2.3872 H   0  0
   18.3095  -13.8452    1.5325 H   0  0
   18.9115  -10.5868   -0.8715 H   0  0
   18.1169   -9.0028    0.6961 H   0  0
   18.8081   -9.8303    2.0905 H   0  0
   18.1694  -14.7570   -0.4351 H   0  0
   21.1078  -15.1753   -1.2898 H   0  0
   18.7237  -17.1384   -0.8258 H   0  0
   21.6673  -17.5389   -1.6444 H   0  0
   20.9755  -19.8061   -0.7466 H   0  0
   20.5155  -19.6494   -2.4532 H   0  0
   19.2896  -19.4766   -1.1843 H   0  0
   21.3872  -11.7346   -0.6332 H   0  0
    3.0367  -10.0676   -0.2475 H   0  0
    4.4959   -9.9198    0.7228 H   0  0
    4.3015   -8.1976   -1.0749 H   0  0
    4.3469   -9.4681   -2.3078 H   0  0
    5.7634   -9.1649   -1.2783 H   0  0
    4.1423  -13.6519    0.2483 H   0  0
    4.0168  -12.3625    1.4460 H   0  0
    1.8365  -13.4501    0.9024 H   0  0
    1.9664  -12.8846   -0.7703 H   0  0
    1.7966  -11.7203    0.5609 H   0  0
  1 33  1  0
  1 35  1  0
  1 37  1  0
  2  3  2  0
  2  8  1  0
  3  4  1  0
  3  7  1  0
  4  5  1  0
  5  6  2  0
  5 15  1  0
  6  2  1  0
  7 38  1  0
  7 39  1  0
  7 40  1  0
  8  9  1  0
  8 41  1  0
  8 42  1  0
  9 10  1  0
  9 43  1  0
  9 44  1  0
 10 11  1  0
 11 12  2  0
 12 18  1  0
 12 45  1  0
 13 14  2  0
 13 46  1  0
 14 11  1  0
 14 47  1  0
 15 16  2  0
 15 48  1  0
 16  1  1  0
 16 49  1  0
 17 13  1  0
 17 18  2  0
 17 22  1  0
 18 19  1  0
 19 20  1  0
 19 50  1  0
 19 51  1  0
 20 21  1  0
 20 23  1  0
 21 22  1  0
 21 30  1  0
 21 52  1  0
 22 53  1  0
 22 54  1  0
 23 24  1  0
 23 25  2  0
 24 26  2  0
 24 55  1  0
 26 27  1  0
 26 56  1  0
 27 28  2  0
 27 57  1  0
 28 29  1  0
 28 58  1  0
 29 59  1  0
 29 60  1  0
 29 61  1  0
 30 31  1  0
 30 32  2  0
 31 62  1  0
 33 34  1  0
 33 63  1  0
 33 64  1  0
 34 65  1  0
 34 66  1  0
 34 67  1  0
 35 36  1  0
 35 68  1  0
 35 69  1  0
 36 70  1  0
 36 71  1  0
 36 72  1  0
M  END
> <Name>
CHEMBL1935498

> <Clean Energy>
55.601799

> <chembl_id>
CHEMBL1935498

> <chembl_pref_name>
None

> <efficacy>
0.947368421

> <Forcefield>
MMFF

> <ForcefieldBase>
MMFF

> <ForcefieldFFML>
<?xml version="1.0" encoding="UTF-8"?>
<!DOCTYPE ffml SYSTEM "Ffml.dtd">
<ffml version="1.0">
<forcefield name="MMFF" derivedFrom="MMFF" base="MMFF">
<atomTypes>
<atomType
name="C100"
element="C"
mass="12.011"
annotation=""/>
<atomType
name="O101"
element="O"
mass="16"
annotation=""/>
<atomType
name="N102"
element="N"
mass="14.007"
annotation=""/>
<atomType
name="H103"
element="H"
mass="1.008"
annotation=""/>
</atomTypes>
<parameters>
</parameters>
</forcefield>
</ffml>

> <Initial Potential Energy>
121.6085

> <Initial RMS Gradient>
20.31175

> <Minimization Criteria>
STEEPD> Minimization exiting with gradient tolerance ( 3.0000000) satisfied.

> <CHARMm Energy>
27.75458

> <Potential Energy>
27.75458

> <RMS Gradient>
0.02978

> <Bond Energy>
6.72913

> <Angle Energy>
20.4537

> <STRBend>
-0.02419

> <Dihedral Energy>
-6.74305

> <OOPLane>
0.3337

> <Van der Waals Energy>
63.08991

> <Electrostatic Energy>
-56.08462

> <Hydrogen Bond Energy>
0

> <Solvation Free Energy>
0

> <HasGasteigerCharges>
true

> <REMARK99>
REMARK  99  MacroMolecule created from Mol2 file
REMARK  99  CHEMBL1935498
REMARK  99  PROTEIN
REMARK  99  GASTEIGER
REMARK  99
REMARK  99

$$$$
CHEMBL1935620
  SciTegic05292516403D

 72 75  0  0  0  0            999 V2000
   10.9658  -24.9705   -0.0966 N   0  0
   12.1336  -25.6463    0.2447 C   0  0
   13.4184  -24.9155    0.1193 C   0  0
   12.1069  -26.7995    0.6669 O   0  0
   14.5580  -25.6113   -0.0127 C   0  0
    6.0240  -23.6392   -0.7497 C   0  0
    6.0111  -24.7489    0.0929 C   0  0
    7.2209  -25.4025    0.3753 C   0  0
    7.2267  -23.1979   -1.3111 C   0  0
    8.4309  -23.8542   -1.0283 C   0  0
    8.4408  -24.9621   -0.1745 C   0  0
    9.7176  -25.7366    0.0545 C   0  0
   10.9073  -23.6378   -0.7514 C   0  0  1  0  0  0
    9.7144  -23.4387   -1.6865 C   0  0
   10.9893  -22.4884    0.2662 C   0  0
   11.0333  -22.8917    1.5583 O   0  0
   11.1186  -21.3127   -0.0501 O   0  0
    4.8950  -25.2940    0.6758 O   0  0
    3.6366  -24.6423    0.4324 C   0  0
    2.5299  -25.3935    1.1809 C   0  0
    1.2252  -24.6703    1.2032 C   0  0
    0.8848  -23.5119    1.8612 C   0  0
   -0.4266  -23.2548    1.6061 O   0  0
   -0.8791  -24.2995    0.8157 C   0  0
    0.1069  -25.1534    0.5488 N   0  0
    1.5919  -22.5556    2.7297 C   0  0
   -2.2330  -24.3654    0.3814 C   0  0
   -2.6918  -25.3815   -0.3664 C   0  0
   -4.1079  -25.4904   -0.8536 C   0  0
   -4.7985  -26.7284   -0.2724 C   0  0
   -6.2090  -26.9684   -0.8434 C   0  0
   -6.7578  -28.3008   -0.3267 C   0  0
   -7.1814  -25.8409   -0.4935 C   0  0
   15.8262  -24.9671   -0.1221 C   0  0
   17.2050  -25.9179   -0.5427 S   0  0
   18.2500  -24.5703   -0.4966 C   0  0
   17.5882  -23.4144   -0.1597 C   0  0
   16.1981  -23.6429    0.0562 C   0  0
   13.4158  -23.8373    0.1725 H   0  0
   14.5309  -26.7001   -0.0511 H   0  0
    5.1176  -23.1011   -1.0067 H   0  0
    7.2076  -26.2815    1.0181 H   0  0
    7.2144  -22.3429   -1.9843 H   0  0
    9.7103  -26.1633    1.0653 H   0  0
    9.7556  -26.5692   -0.6594 H   0  0
   11.8154  -23.5396   -1.3588 H   0  0
    9.8438  -24.0566   -2.5843 H   0  0
    9.6552  -22.3942   -2.0150 H   0  0
   10.7302  -23.8234    1.6285 H   0  0
    3.6934  -23.6076    0.7914 H   0  0
    3.4116  -24.6444   -0.6414 H   0  0
    2.4017  -26.3854    0.7303 H   0  0
    2.8520  -25.5822    2.2130 H   0  0
    0.9391  -22.2026    3.5341 H   0  0
    1.9228  -21.6890    2.1495 H   0  0
    2.4716  -23.0168    3.1887 H   0  0
   -2.8833  -23.5534    0.6847 H   0  0
   -2.0133  -26.1823   -0.6607 H   0  0
   -4.6673  -24.5859   -0.5901 H   0  0
   -4.0936  -25.5514   -1.9481 H   0  0
   -4.1801  -27.6119   -0.4812 H   0  0
   -4.8526  -26.6387    0.8207 H   0  0
   -6.1395  -27.0354   -1.9365 H   0  0
   -7.7454  -28.5070   -0.7529 H   0  0
   -6.8538  -28.2949    0.7644 H   0  0
   -6.0968  -29.1285   -0.6048 H   0  0
   -8.1904  -26.0737   -0.8511 H   0  0
   -6.8836  -24.8976   -0.9609 H   0  0
   -7.2350  -25.6845    0.5891 H   0  0
   19.3009  -24.6918   -0.7155 H   0  0
   18.0744  -22.4508   -0.0702 H   0  0
   15.5059  -22.8579    0.3369 H   0  0
  1  2  1  0
  1 13  1  0
  2  3  1  0
  2  4  2  0
  3  5  2  0
  3 39  1  0
  5 34  1  0
  5 40  1  0
  6  7  2  0
  6 41  1  0
  7  8  1  0
  7 18  1  0
  8 11  2  0
  8 42  1  0
  9  6  1  0
  9 43  1  0
 10  9  2  0
 10 11  1  0
 10 14  1  0
 11 12  1  0
 12  1  1  0
 12 44  1  0
 12 45  1  0
 13 14  1  0
 13 15  1  0
 13 46  1  0
 14 47  1  0
 14 48  1  0
 15 16  1  0
 15 17  2  0
 16 49  1  0
 18 19  1  0
 19 20  1  0
 19 50  1  0
 19 51  1  0
 20 21  1  0
 20 52  1  0
 20 53  1  0
 21 22  2  0
 22 23  1  0
 22 26  1  0
 23 24  1  0
 24 25  2  0
 24 27  1  0
 25 21  1  0
 26 54  1  0
 26 55  1  0
 26 56  1  0
 27 28  2  0
 27 57  1  0
 28 29  1  0
 28 58  1  0
 29 30  1  0
 29 59  1  0
 29 60  1  0
 30 31  1  0
 30 61  1  0
 30 62  1  0
 31 32  1  0
 31 33  1  0
 31 63  1  0
 32 64  1  0
 32 65  1  0
 32 66  1  0
 33 67  1  0
 33 68  1  0
 33 69  1  0
 34 35  1  0
 35 36  1  0
 36 37  2  0
 36 70  1  0
 37 38  1  0
 37 71  1  0
 38 34  2  0
 38 72  1  0
M  END
> <Name>
CHEMBL1935620

> <Clean Energy>
78.714699

> <chembl_id>
CHEMBL1935620

> <chembl_pref_name>
None

> <efficacy>
1.042105263

> <Forcefield>
MMFF

> <ForcefieldBase>
MMFF

> <ForcefieldFFML>
<?xml version="1.0" encoding="UTF-8"?>
<!DOCTYPE ffml SYSTEM "Ffml.dtd">
<ffml version="1.0">
<forcefield name="MMFF" derivedFrom="MMFF" base="MMFF">
<atomTypes>
<atomType
name="N100"
element="N"
mass="14.007"
annotation=""/>
<atomType
name="C101"
element="C"
mass="12.011"
annotation=""/>
<atomType
name="O102"
element="O"
mass="16"
annotation=""/>
<atomType
name="S103"
element="S"
mass="32.066"
annotation=""/>
<atomType
name="H104"
element="H"
mass="1.008"
annotation=""/>
</atomTypes>
<parameters>
</parameters>
</forcefield>
</ffml>

> <Initial Potential Energy>
133.59643

> <Initial RMS Gradient>
22.85566

> <Minimization Criteria>
CONJUG> Minimization exiting with gradient tolerance ( 0.0100000) satisfied.

> <CHARMm Energy>
27.26419

> <Potential Energy>
27.26419

> <RMS Gradient>
0.0073

> <Bond Energy>
6.94593

> <Angle Energy>
22.00372

> <STRBend>
0.21537

> <Dihedral Energy>
-8.38838

> <OOPLane>
0.4155

> <Van der Waals Energy>
54.40303

> <Electrostatic Energy>
-48.33098

> <Hydrogen Bond Energy>
0

> <Solvation Free Energy>
0

> <HasGasteigerCharges>
true

> <REMARK99>
REMARK  99  MacroMolecule created from Mol2 file
REMARK  99  CHEMBL1935620
REMARK  99  PROTEIN
REMARK  99  GASTEIGER
REMARK  99
REMARK  99

$$$$
CHEMBL232798
  SciTegic05292516403D

 55 56  0  0  0  0            999 V2000
   -3.9998  -16.9988    0.2805 O   0  0
   -2.7340  -16.4612    0.7468 C   0  0
   -1.5730  -17.3373    0.2609 C   0  0
   -0.2391  -16.8130    0.8086 C   0  0
    0.9822  -17.5546    0.3126 C   0  0
    1.4059  -18.7389    0.9295 C   0  0
    2.5637  -19.3982    0.4951 C   0  0
    3.3187  -18.8894   -0.5705 C   0  0
    2.8835  -17.7156   -1.1996 C   0  0
    1.7289  -17.0560   -0.7627 C   0  0
    4.5425  -19.6320   -1.0756 C   0  0
    5.7327  -19.6648   -0.0947 C   0  0  1  0  0  0
    6.3078  -21.0796   -0.0576 C   0  0
    7.5832  -21.1270   -0.5201 O   0  0
    5.7250  -22.0771    0.3386 O   0  0
    6.8230  -18.8048   -0.5224 O   0  0
    6.5757  -17.4317   -0.2096 C   0  0
    7.8246  -16.6411   -0.5467 C   0  0
   -5.1959  -16.4249    0.6014 C   0  0
   -6.2148  -17.2093    0.1493 N   0  0
   -5.3291  -14.9838    1.4219 S   0  0
   -7.6320  -16.9492    0.3155 C   0  0
   -8.4668  -18.1604   -0.0138 C   0  0
   -9.4298  -18.1137   -1.0311 C   0  0
  -10.2118  -19.2347   -1.3180 C   0  0
  -10.0381  -20.4132   -0.5937 C   0  0
   -9.0840  -20.4719    0.4197 C   0  0
   -8.3060  -19.3507    0.7118 C   0  0
   -2.6080  -15.4470    0.3510 H   0  0
   -2.7404  -16.4413    1.8425 H   0  0
   -1.7375  -18.3758    0.5732 H   0  0
   -1.5630  -17.3530   -0.8361 H   0  0
   -0.1332  -15.7495    0.5569 H   0  0
   -0.2497  -16.8529    1.9058 H   0  0
    0.8334  -19.1582    1.7550 H   0  0
    2.8646  -20.3236    0.9862 H   0  0
    3.4409  -17.3066   -2.0416 H   0  0
    1.4129  -16.1467   -1.2696 H   0  0
    4.2052  -20.6474   -1.3228 H   0  0
    4.8656  -19.1897   -2.0270 H   0  0
    5.4630  -19.4140    0.9382 H   0  0
    7.8700  -20.2108   -0.7484 H   0  0
    5.7365  -17.0588   -0.8022 H   0  0
    6.3477  -17.3237    0.8561 H   0  0
    7.6881  -15.5802   -0.3197 H   0  0
    8.0729  -16.7468   -1.6078 H   0  0
    8.6830  -17.0168    0.0202 H   0  0
   -5.9476  -18.0331   -0.3725 H   0  0
   -7.8346  -16.6435    1.3483 H   0  0
   -7.8883  -16.1066   -0.3370 H   0  0
   -9.5781  -17.2029   -1.6070 H   0  0
  -10.9597  -19.1886   -2.1063 H   0  0
  -10.6478  -21.2847   -0.8200 H   0  0
   -8.9385  -21.3898    0.9831 H   0  0
   -7.5651  -19.4083    1.5076 H   0  0
  1  2  1  0
  1 19  1  0
  2  3  1  0
  2 29  1  0
  2 30  1  0
  3  4  1  0
  3 31  1  0
  3 32  1  0
  4  5  1  0
  4 33  1  0
  4 34  1  0
  5  6  2  0
  6  7  1  0
  6 35  1  0
  7  8  2  0
  7 36  1  0
  8  9  1  0
  8 11  1  0
  9 10  2  0
  9 37  1  0
 10  5  1  0
 10 38  1  0
 11 12  1  0
 11 39  1  0
 11 40  1  0
 12 13  1  0
 12 16  1  0
 12 41  1  0
 13 14  1  0
 13 15  2  0
 14 42  1  0
 16 17  1  0
 17 18  1  0
 17 43  1  0
 17 44  1  0
 18 45  1  0
 18 46  1  0
 18 47  1  0
 19 20  1  0
 19 21  2  0
 20 22  1  0
 20 48  1  0
 22 23  1  0
 22 49  1  0
 22 50  1  0
 23 24  2  0
 24 25  1  0
 24 51  1  0
 25 26  2  0
 25 52  1  0
 26 27  1  0
 26 53  1  0
 27 28  2  0
 27 54  1  0
 28 23  1  0
 28 55  1  0
M  END
> <Name>
CHEMBL232798

> <Clean Energy>
13.7473

> <chembl_id>
CHEMBL232798

> <chembl_pref_name>
None

> <efficacy>
1.17

> <Forcefield>
MMFF

> <ForcefieldBase>
MMFF

> <ForcefieldFFML>
<?xml version="1.0" encoding="UTF-8"?>
<!DOCTYPE ffml SYSTEM "Ffml.dtd">
<ffml version="1.0">
<forcefield name="MMFF" derivedFrom="MMFF" base="MMFF">
<atomTypes>
<atomType
name="O100"
element="O"
mass="16"
annotation=""/>
<atomType
name="C101"
element="C"
mass="12.011"
annotation=""/>
<atomType
name="N102"
element="N"
mass="14.007"
annotation=""/>
<atomType
name="S103"
element="S"
mass="32.066"
annotation=""/>
<atomType
name="H104"
element="H"
mass="1.008"
annotation=""/>
</atomTypes>
<parameters>
</parameters>
</forcefield>
</ffml>

> <Initial Potential Energy>
120.39947

> <Initial RMS Gradient>
28.50183

> <Minimization Criteria>
STEEPD> Minimization exiting with gradient tolerance ( 3.0000000) satisfied.

> <CHARMm Energy>
15.97593

> <Potential Energy>
15.97593

> <RMS Gradient>
0.04559

> <Bond Energy>
5.93275

> <Angle Energy>
10.9195

> <STRBend>
0.7069

> <Dihedral Energy>
-2.20422

> <OOPLane>
0.0264

> <Van der Waals Energy>
53.52393

> <Electrostatic Energy>
-52.92932

> <Hydrogen Bond Energy>
0

> <Solvation Free Energy>
0

> <HasGasteigerCharges>
true

> <REMARK99>
REMARK  99  MacroMolecule created from Mol2 file
REMARK  99  CHEMBL232798
REMARK  99  PROTEIN
REMARK  99  GASTEIGER
REMARK  99
REMARK  99

$$$$
CHEMBL379439
  SciTegic05292516403D

 49 52  0  0  0  0            999 V2000
   14.4581  -22.6136   -0.0521 C   0  0
    9.8566  -19.7767   -0.0910 C   0  0
   10.0702  -21.0574   -0.6307 C   0  0
   11.3337  -21.6740   -0.5503 C   0  0
   10.9064  -19.1012    0.5323 C   0  0
   12.1315  -19.7346    0.5938 C   0  0
   12.3711  -20.9933    0.0673 C   0  0
   13.7690  -21.3672    0.3121 C   0  0
   14.3654  -20.3388    0.9590 C   0  0
   13.3755  -19.2670    1.1794 C   0  0
   15.7478  -20.2598    1.4264 C   0  0
    8.6863  -19.0779   -0.1031 O   0  0
    7.5283  -19.6820   -0.6741 C   0  0
   13.5409  -18.1876    1.7079 O   0  0
   14.9965  -23.4535    0.9340 C   0  0
   15.6941  -24.6099    0.5760 C   0  0
   15.8491  -24.9421   -0.7687 C   0  0
   15.3042  -24.1222   -1.7558 C   0  0
   14.6112  -22.9625   -1.3998 C   0  0
   16.6016  -20.4800    0.3914 O   0  0
   16.0756  -20.0512    2.5842 O   0  0
   17.9885  -20.4903    0.7584 C   0  0
   18.7963  -20.8500   -0.4729 C   0  0
    6.3959  -18.7096   -0.4716 C   0  0
    6.2055  -17.6529   -1.3719 C   0  0
    5.2045  -16.7118   -1.1465 C   0  0
    4.3920  -16.8164   -0.0177 C   0  0
    4.5876  -17.8537    0.8939 C   0  0
    5.5893  -18.7947    0.6711 C   0  0
    9.2685  -21.6029   -1.1201 H   0  0
   11.4830  -22.6678   -0.9636 H   0  0
   10.7681  -18.1124    0.9587 H   0  0
    7.6769  -19.8660   -1.7452 H   0  0
    7.2987  -20.6327   -0.1775 H   0  0
   14.8829  -23.2108    1.9891 H   0  0
   16.1235  -25.2489    1.3450 H   0  0
   16.3995  -25.8386   -1.0466 H   0  0
   15.4264  -24.3802   -2.8047 H   0  0
   14.2061  -22.3245   -2.1827 H   0  0
   18.2782  -19.4973    1.1191 H   0  0
   18.1607  -21.2351    1.5435 H   0  0
   19.8657  -20.8712   -0.2457 H   0  0
   18.6189  -20.1263   -1.2753 H   0  0
   18.4962  -21.8308   -0.8569 H   0  0
    6.8729  -17.5481   -2.2253 H   0  0
    5.0623  -15.8881   -1.8414 H   0  0
    3.6152  -16.0770    0.1612 H   0  0
    3.9676  -17.9178    1.7843 H   0  0
    5.7789  -19.5769    1.4042 H   0  0
  1 15  2  0
  2  3  2  0
  2 12  1  0
  3  4  1  0
  3 30  1  0
  4  7  2  0
  4 31  1  0
  5  2  1  0
  5 32  1  0
  6  5  2  0
  6  7  1  0
  7  8  1  0
  8  1  1  0
  8  9  2  0
  9 10  1  0
  9 11  1  0
 10  6  1  0
 10 14  2  0
 11 20  1  0
 11 21  2  0
 12 13  1  0
 13 24  1  0
 13 33  1  0
 13 34  1  0
 15 16  1  0
 15 35  1  0
 16 17  2  0
 16 36  1  0
 17 18  1  0
 17 37  1  0
 18 19  2  0
 18 38  1  0
 19  1  1  0
 19 39  1  0
 20 22  1  0
 22 23  1  0
 22 40  1  0
 22 41  1  0
 23 42  1  0
 23 43  1  0
 23 44  1  0
 24 25  2  0
 25 26  1  0
 25 45  1  0
 26 27  2  0
 26 46  1  0
 27 28  1  0
 27 47  1  0
 28 29  2  0
 28 48  1  0
 29 24  1  0
 29 49  1  0
M  END
> <Name>
CHEMBL379439

> <Clean Energy>
31.6555

> <chembl_id>
CHEMBL379439

> <chembl_pref_name>
None

> <efficacy>
0.91

> <Forcefield>
MMFF

> <ForcefieldBase>
MMFF

> <ForcefieldFFML>
<?xml version="1.0" encoding="UTF-8"?>
<!DOCTYPE ffml SYSTEM "Ffml.dtd">
<ffml version="1.0">
<forcefield name="MMFF" derivedFrom="MMFF" base="MMFF">
<atomTypes>
<atomType
name="C100"
element="C"
mass="12.011"
annotation=""/>
<atomType
name="O101"
element="O"
mass="16"
annotation=""/>
<atomType
name="H102"
element="H"
mass="1.008"
annotation=""/>
</atomTypes>
<parameters>
</parameters>
</forcefield>
</ffml>

> <Initial Potential Energy>
180.72742

> <Initial RMS Gradient>
34.75401

> <Minimization Criteria>
CONJUG> Minimization exiting with gradient tolerance ( 0.0100000) satisfied.

> <CHARMm Energy>
66.36117

> <Potential Energy>
66.36117

> <RMS Gradient>
0.00914

> <Bond Energy>
4.67342

> <Angle Energy>
24.61501

> <STRBend>
-0.34622

> <Dihedral Energy>
10.6626

> <OOPLane>
0.09877

> <Van der Waals Energy>
51.33862

> <Electrostatic Energy>
-24.68103

> <Hydrogen Bond Energy>
0

> <Solvation Free Energy>
0

> <HasGasteigerCharges>
true

> <REMARK99>
REMARK  99  MacroMolecule created from Mol2 file
REMARK  99  CHEMBL379439
REMARK  99  PROTEIN
REMARK  99  GASTEIGER
REMARK  99
REMARK  99

$$$$
CHEMBL458648
  SciTegic05292516403D

 53 56  0  0  0  0            999 V2000
    5.3056   -3.3238    0.0011 C   0  0
    5.0956   -4.7063    0.0007 C   0  0
    6.1820   -5.5732    0.0004 C   0  0
    6.6045   -2.8100    0.0009 C   0  0
    7.6910   -3.6806    0.0005 C   0  0
    7.4630   -5.0481    0.0002 C   0  0
    8.5226   -5.9589   -0.0003 O   0  0
    9.8427   -5.5284   -0.0009 C   0  0
   10.0863   -4.0665   -0.0003 C   0  0
    9.0566   -3.2024    0.0003 C   0  0
   11.4328   -3.4415   -0.0005 C   0  0
   12.4284   -4.3524    0.0007 O   0  0
   11.5948   -2.2265   -0.0015 O   0  0
   13.7494   -3.8043    0.0004 C   0  0
   10.7475   -6.3557   -0.0020 O   0  0
    3.8901   -5.3396    0.0007 O   0  0
    2.7349   -4.5081    0.0004 C   0  0
    1.5189   -5.4111   -0.0004 C   0  0
    0.2113   -4.7070   -0.0004 C   0  0
   -0.1282   -3.3680   -0.0008 C   0  0
   -1.4913   -3.2840   -0.0006 O   0  0
   -1.9233   -4.5847   -0.0001 C   0  0
   -0.9387   -5.4641    0.0001 N   0  0
    0.6013   -2.0863   -0.0014 C   0  0
   -3.3722   -4.7999    0.0002 C   0  0
   -4.2839   -3.7327    0.0001 C   0  0
   -5.6702   -3.9578    0.0003 C   0  0
   -6.1723   -5.2578    0.0005 C   0  0
   -5.2732   -6.3268    0.0006 C   0  0
   -3.8890   -6.1025    0.0004 C   0  0
   -7.4937   -5.6142    0.0007 O   0  0
   -8.4516   -4.5615    0.0005 C   0  0
    4.4838   -2.6160    0.0014 H   0  0
    6.0267   -6.6485    0.0001 H   0  0
    6.7522   -1.7324    0.0012 H   0  0
    9.2015   -2.1256    0.0007 H   0  0
   14.4607   -4.6348    0.0006 H   0  0
   13.9139   -3.2046    0.9009 H   0  0
   13.9138   -3.2053   -0.9007 H   0  0
    2.7316   -3.8816    0.9004 H   0  0
    2.7323   -3.8812   -0.8993 H   0  0
    1.5647   -6.0749   -0.8736 H   0  0
    1.5642   -6.0757    0.8723 H   0  0
   -0.0902   -1.2375   -0.0016 H   0  0
    1.2320   -2.0000   -0.8908 H   0  0
    1.2324   -1.9994    0.8878 H   0  0
   -3.9262   -2.7048   -0.0001 H   0  0
   -6.3241   -3.0925    0.0002 H   0  0
   -5.6535   -7.3463    0.0008 H   0  0
   -3.2134   -6.9566    0.0005 H   0  0
   -9.4474   -5.0151    0.0006 H   0  0
   -8.3629   -3.9492   -0.9028 H   0  0
   -8.3628   -3.9489    0.9036 H   0  0
  1  2  2  0
  1 33  1  0
  2  3  1  0
  2 16  1  0
  3  6  2  0
  3 34  1  0
  4  1  1  0
  4 35  1  0
  5  4  2  0
  5  6  1  0
  5 10  1  0
  6  7  1  0
  7  8  1  0
  8  9  1  0
  8 15  2  0
  9 10  2  0
  9 11  1  0
 10 36  1  0
 11 12  1  0
 11 13  2  0
 12 14  1  0
 14 37  1  0
 14 38  1  0
 14 39  1  0
 16 17  1  0
 17 18  1  0
 17 40  1  0
 17 41  1  0
 18 19  1  0
 18 42  1  0
 18 43  1  0
 19 20  2  0
 20 21  1  0
 20 24  1  0
 21 22  1  0
 22 23  2  0
 22 25  1  0
 23 19  1  0
 24 44  1  0
 24 45  1  0
 24 46  1  0
 25 26  2  0
 26 27  1  0
 26 47  1  0
 27 28  2  0
 27 48  1  0
 28 29  1  0
 28 31  1  0
 29 30  2  0
 29 49  1  0
 30 25  1  0
 30 50  1  0
 31 32  1  0
 32 51  1  0
 32 52  1  0
 32 53  1  0
M  END
> <Name>
CHEMBL458648

> <Clean Energy>
24.038601

> <chembl_id>
CHEMBL458648

> <chembl_pref_name>
None

> <efficacy>
1.22

> <Forcefield>
MMFF

> <ForcefieldBase>
MMFF

> <ForcefieldFFML>
<?xml version="1.0" encoding="UTF-8"?>
<!DOCTYPE ffml SYSTEM "Ffml.dtd">
<ffml version="1.0">
<forcefield name="MMFF" derivedFrom="MMFF" base="MMFF">
<atomTypes>
<atomType
name="C100"
element="C"
mass="12.011"
annotation=""/>
<atomType
name="O101"
element="O"
mass="16"
annotation=""/>
<atomType
name="N102"
element="N"
mass="14.007"
annotation=""/>
<atomType
name="H103"
element="H"
mass="1.008"
annotation=""/>
</atomTypes>
<parameters>
</parameters>
</forcefield>
</ffml>

> <Initial Potential Energy>
121.02347

> <Initial RMS Gradient>
25.44501

> <Minimization Criteria>
CONJUG> Minimization exiting with gradient tolerance ( 0.0100000) satisfied.

> <CHARMm Energy>
62.71487

> <Potential Energy>
62.71487

> <RMS Gradient>
0.00992

> <Bond Energy>
4.01761

> <Angle Energy>
29.91128

> <STRBend>
-0.29535

> <Dihedral Energy>
-0.34335

> <OOPLane>
0

> <Van der Waals Energy>
61.13886

> <Electrostatic Energy>
-31.71418

> <Hydrogen Bond Energy>
0

> <Solvation Free Energy>
0

> <HasGasteigerCharges>
true

> <REMARK99>
REMARK  99  MacroMolecule created from Mol2 file
REMARK  99  CHEMBL458648
REMARK  99  PROTEIN
REMARK  99  GASTEIGER
REMARK  99
REMARK  99

$$$$
CHEMBL1945220
  SciTegic05292516403D

 74 78  0  0  0  0            999 V2000
   16.2958  -17.0388    0.3398 C   0  0
   15.8780  -18.2050   -0.2055 C   0  0
   16.8050  -19.2588   -0.5959 C   0  0
   17.7883  -16.8366    0.4464 C   0  0
   18.2481  -15.9920    1.2201 O   0  0
   15.2862  -16.0127    0.7735 C   0  0
   15.7566  -14.6537    1.2179 C   0  0
   14.0806  -16.2814    0.7451 O   0  0
   14.5527  -18.5554   -0.3871 O   0  0
   18.6796  -17.6089   -0.5307 C   0  0  1  0  0  0
   18.1108  -18.9839   -0.7353 C   0  0
   19.1274  -19.9344   -0.8638 O   0  0
   18.7447  -16.8281   -1.8543 C   0  0
   20.0693  -17.9830   -0.0903 C   0  0
   20.3076  -19.3347   -0.4366 C   0  0
   21.5726  -19.9287   -0.3398 C   0  0
   22.5888  -19.1155    0.2126 C   0  0
   22.3476  -17.7696    0.5732 C   0  0
   21.0842  -17.2079    0.4271 C   0  0
   20.9090  -15.9085    0.7881 O   0  0
   23.8725  -19.6005    0.3553 O   0  0
   24.2620  -19.6456    1.7325 C   0  0
   21.8119  -21.3352   -0.8391 C   0  0
   20.8735  -22.0483   -1.1827 O   0  0
   23.1287  -21.7591   -0.9137 N   0  0
   23.5433  -23.0444   -1.4459 C   0  0
   24.9285  -23.3850   -0.9435 C   0  0
   27.5484  -23.8028   -0.0703 C   0  0
   27.3107  -22.8287   -1.0428 C   0  0
   26.0017  -22.6455   -1.4854 C   0  0
   26.5097  -24.5649    0.4851 C   0  0
   25.1733  -24.3499    0.0710 C   0  0
   24.1663  -25.1151    0.7059 C   0  0
   24.4679  -26.0779    1.6733 C   0  0
   25.7878  -26.2892    2.0463 C   0  0
   26.7999  -25.5333    1.4607 C   0  0
   28.4387  -22.0107   -1.6243 C   0  0
   29.2887  -21.3124   -0.5568 C   0  0
   30.1927  -20.2543   -1.1815 C   0  0
   31.2566  -19.7747   -0.2255 C   0  0
   31.8141  -18.6224   -0.7003 O   0  0
   31.6582  -20.3694    0.7669 O   0  0
   32.8969  -18.1297    0.0924 C   0  0
   16.4411  -20.2785   -0.6847 H   0  0
   14.8978  -13.9767    1.2679 H   0  0
   16.4615  -14.2358    0.4946 H   0  0
   16.2038  -14.7182    2.2126 H   0  0
   13.9559  -17.8313   -0.0671 H   0  0
   19.3125  -17.3659   -2.6234 H   0  0
   19.2278  -15.8539   -1.7117 H   0  0
   17.7455  -16.6333   -2.2611 H   0  0
   23.1556  -17.1476    0.9498 H   0  0
   19.9825  -15.7843    1.0867 H   0  0
   25.1324  -20.3047    1.8092 H   0  0
   23.4686  -20.0585    2.3664 H   0  0
   24.5604  -18.6531    2.0850 H   0  0
   23.8491  -21.1082   -0.6202 H   0  0
   22.7894  -23.8012   -1.2199 H   0  0
   23.5589  -22.9544   -2.5390 H   0  0
   28.5672  -23.9688    0.2714 H   0  0
   25.7919  -21.8972   -2.2494 H   0  0
   23.1182  -24.9654    0.4610 H   0  0
   23.6759  -26.6643    2.1327 H   0  0
   26.0309  -27.0335    2.7980 H   0  0
   27.8263  -25.7031    1.7772 H   0  0
   29.0683  -22.6658   -2.2390 H   0  0
   28.0237  -21.2534   -2.3014 H   0  0
   28.6475  -20.8353    0.1956 H   0  0
   29.8906  -22.0578   -0.0233 H   0  0
   30.7051  -20.6609   -2.0610 H   0  0
   29.5839  -19.3984   -1.4949 H   0  0
   33.2537  -17.2012   -0.3617 H   0  0
   33.7216  -18.8491    0.1028 H   0  0
   32.5593  -17.9097    1.1100 H   0  0
  1  2  2  0
  1  4  1  0
  1  6  1  0
  2  3  1  0
  2  9  1  0
  3 11  2  0
  3 44  1  0
  4  5  2  0
  6  7  1  0
  6  8  2  0
  7 45  1  0
  7 46  1  0
  7 47  1  0
  9 48  1  0
 10  4  1  0
 10 11  1  0
 10 13  1  0
 11 12  1  0
 12 15  1  0
 13 49  1  0
 13 50  1  0
 13 51  1  0
 14 10  1  0
 14 15  2  0
 15 16  1  0
 16 17  2  0
 16 23  1  0
 17 18  1  0
 17 21  1  0
 18 19  2  0
 18 52  1  0
 19 14  1  0
 19 20  1  0
 20 53  1  0
 21 22  1  0
 22 54  1  0
 22 55  1  0
 22 56  1  0
 23 24  2  0
 23 25  1  0
 25 26  1  0
 25 57  1  0
 26 27  1  0
 26 58  1  0
 26 59  1  0
 27 32  2  0
 28 29  1  0
 28 60  1  0
 29 30  2  0
 29 37  1  0
 30 27  1  0
 30 61  1  0
 31 28  2  0
 31 32  1  0
 32 33  1  0
 33 34  2  0
 33 62  1  0
 34 35  1  0
 34 63  1  0
 35 36  2  0
 35 64  1  0
 36 31  1  0
 36 65  1  0
 37 38  1  0
 37 66  1  0
 37 67  1  0
 38 39  1  0
 38 68  1  0
 38 69  1  0
 39 40  1  0
 39 70  1  0
 39 71  1  0
 40 41  1  0
 40 42  2  0
 41 43  1  0
 43 72  1  0
 43 73  1  0
 43 74  1  0
M  END
> <Name>
CHEMBL1945220

> <Clean Energy>
60.404999

> <chembl_id>
CHEMBL1945220

> <chembl_pref_name>
None

> <efficacy>
0.99

> <Forcefield>
MMFF

> <ForcefieldBase>
MMFF

> <ForcefieldFFML>
<?xml version="1.0" encoding="UTF-8"?>
<!DOCTYPE ffml SYSTEM "Ffml.dtd">
<ffml version="1.0">
<forcefield name="MMFF" derivedFrom="MMFF" base="MMFF">
<atomTypes>
<atomType
name="C100"
element="C"
mass="12.011"
annotation=""/>
<atomType
name="O101"
element="O"
mass="16"
annotation=""/>
<atomType
name="N102"
element="N"
mass="14.007"
annotation=""/>
<atomType
name="H103"
element="H"
mass="1.008"
annotation=""/>
</atomTypes>
<parameters>
</parameters>
</forcefield>
</ffml>

> <Initial Potential Energy>
163.53734

> <Initial RMS Gradient>
26.34883

> <Minimization Criteria>
STEEPD> Minimization exiting with gradient tolerance ( 3.0000000) satisfied.

> <CHARMm Energy>
48.97619

> <Potential Energy>
48.97619

> <RMS Gradient>
0.09147

> <Bond Energy>
11.87879

> <Angle Energy>
28.49732

> <STRBend>
0.71294

> <Dihedral Energy>
9.96586

> <OOPLane>
0.82952

> <Van der Waals Energy>
88.50025

> <Electrostatic Energy>
-91.40849

> <Hydrogen Bond Energy>
0

> <Solvation Free Energy>
0

> <HasGasteigerCharges>
true

> <REMARK99>
REMARK  99  MacroMolecule created from Mol2 file
REMARK  99  CHEMBL1945220
REMARK  99  PROTEIN
REMARK  99  GASTEIGER
REMARK  99
REMARK  99

$$$$
CHEMBL210162
  SciTegic05292516403D

 55 58  0  0  0  0            999 V2000
   14.6848  -27.8493   -0.0813 C   0  0
   10.1760  -24.9928    0.5999 C   0  0
   10.3009  -26.3060    0.1085 C   0  0
   11.5539  -26.9317    0.0266 C   0  0
   11.3096  -24.3024    1.0360 C   0  0
   12.5292  -24.9480    0.9430 C   0  0
   12.6740  -26.2327    0.4432 C   0  0
   14.0886  -26.6213    0.4603 C   0  0
   14.7910  -25.5891    0.9767 C   0  0
   13.8595  -24.4884    1.3130 C   0  0
   16.2446  -25.4986    1.1324 C   0  0
    9.0045  -24.2924    0.7006 O   0  0
    7.8346  -24.9037    0.1538 C   0  0
   14.1419  -23.4209    1.8174 O   0  0
   15.3544  -28.7591    0.7452 C   0  0
   15.9205  -29.9179    0.2085 C   0  0
   15.8150  -30.1800   -1.1560 C   0  0
   15.1430  -29.2851   -1.9865 C   0  0
   14.5789  -28.1247   -1.4520 C   0  0
   16.6992  -24.4521    0.4001 O   0  0
   16.9159  -26.2736    1.7949 O   0  0
   18.1167  -24.2325    0.4478 C   0  0
   18.8111  -25.0795   -0.6023 C   0  0
    6.6976  -23.8921    0.2020 C   0  0
    5.4172  -24.4888   -0.3767 C   0  0
    4.3123  -23.4683   -0.4368 C   0  0
    4.1426  -22.6795   -1.5825 C   0  0
    3.1362  -21.7162   -1.6308 C   0  0
    2.2979  -21.5300   -0.5332 C   0  0
    2.4646  -22.3045    0.6136 C   0  0
    3.4694  -23.2692    0.6637 C   0  0
    9.4350  -26.8740   -0.2186 H   0  0
   11.6302  -27.9456   -0.3550 H   0  0
   11.2419  -23.2933    1.4291 H   0  0
    8.0104  -25.1909   -0.8902 H   0  0
    7.5698  -25.7879    0.7459 H   0  0
   15.4593  -28.5704    1.8123 H   0  0
   16.4535  -30.6106    0.8560 H   0  0
   16.2637  -31.0789   -1.5720 H   0  0
   15.0681  -29.4882   -3.0519 H   0  0
   14.0637  -27.4335   -2.1164 H   0  0
   18.2837  -23.1714    0.2354 H   0  0
   18.5161  -24.4278    1.4497 H   0  0
   19.8860  -24.8783   -0.6143 H   0  0
   18.4014  -24.8717   -1.5962 H   0  0
   18.6572  -26.1464   -0.4118 H   0  0
    6.5396  -23.5629    1.2370 H   0  0
    6.9924  -22.9912   -0.3519 H   0  0
    5.6014  -24.8818   -1.3848 H   0  0
    5.0923  -25.3468    0.2253 H   0  0
    4.8034  -22.8061   -2.4372 H   0  0
    3.0063  -21.1067   -2.5214 H   0  0
    1.5166  -20.7765   -0.5697 H   0  0
    1.8124  -22.1530    1.4699 H   0  0
    3.5995  -23.8574    1.5691 H   0  0
  1 15  2  0
  2  3  2  0
  2 12  1  0
  3  4  1  0
  3 32  1  0
  4  7  2  0
  4 33  1  0
  5  2  1  0
  5 34  1  0
  6  5  2  0
  6  7  1  0
  7  8  1  0
  8  1  1  0
  8  9  2  0
  9 10  1  0
  9 11  1  0
 10  6  1  0
 10 14  2  0
 11 20  1  0
 11 21  2  0
 12 13  1  0
 13 24  1  0
 13 35  1  0
 13 36  1  0
 15 16  1  0
 15 37  1  0
 16 17  2  0
 16 38  1  0
 17 18  1  0
 17 39  1  0
 18 19  2  0
 18 40  1  0
 19  1  1  0
 19 41  1  0
 20 22  1  0
 22 23  1  0
 22 42  1  0
 22 43  1  0
 23 44  1  0
 23 45  1  0
 23 46  1  0
 24 25  1  0
 24 47  1  0
 24 48  1  0
 25 26  1  0
 25 49  1  0
 25 50  1  0
 26 27  2  0
 27 28  1  0
 27 51  1  0
 28 29  2  0
 28 52  1  0
 29 30  1  0
 29 53  1  0
 30 31  2  0
 30 54  1  0
 31 26  1  0
 31 55  1  0
M  END
> <Name>
CHEMBL210162

> <Clean Energy>
32.425598

> <chembl_id>
CHEMBL210162

> <chembl_pref_name>
None

> <efficacy>
1.13

> <Forcefield>
MMFF

> <ForcefieldBase>
MMFF

> <ForcefieldFFML>
<?xml version="1.0" encoding="UTF-8"?>
<!DOCTYPE ffml SYSTEM "Ffml.dtd">
<ffml version="1.0">
<forcefield name="MMFF" derivedFrom="MMFF" base="MMFF">
<atomTypes>
<atomType
name="C100"
element="C"
mass="12.011"
annotation=""/>
<atomType
name="O101"
element="O"
mass="16"
annotation=""/>
<atomType
name="H102"
element="H"
mass="1.008"
annotation=""/>
</atomTypes>
<parameters>
</parameters>
</forcefield>
</ffml>

> <Initial Potential Energy>
171.41038

> <Initial RMS Gradient>
32.28146

> <Minimization Criteria>
CONJUG> Minimization exiting with gradient tolerance ( 0.0100000) satisfied.

> <CHARMm Energy>
60.91378

> <Potential Energy>
60.91378

> <RMS Gradient>
0.00922

> <Bond Energy>
4.63497

> <Angle Energy>
23.85367

> <STRBend>
-0.11597

> <Dihedral Energy>
8.70326

> <OOPLane>
0.0705

> <Van der Waals Energy>
55.72639

> <Electrostatic Energy>
-31.95902

> <Hydrogen Bond Energy>
0

> <Solvation Free Energy>
0

> <HasGasteigerCharges>
true

> <REMARK99>
REMARK  99  MacroMolecule created from Mol2 file
REMARK  99  CHEMBL210162
REMARK  99  PROTEIN
REMARK  99  GASTEIGER
REMARK  99
REMARK  99

$$$$
CHEMBL4163242
  SciTegic05292516403D

 76 79  0  0  0  0            999 V2000
   28.8143   -5.4752   -1.5875 C   0  0
   27.8879   -4.8821   -2.3754 F   0  0
   28.2482   -6.5984   -1.0835 F   0  0
   18.2271   -3.9697   -0.0537 C   0  0
   17.9122   -5.2624    0.4023 C   0  0
   18.8688   -5.9865    1.1328 C   0  0
   19.4721   -3.3878    0.2276 C   0  0
   20.4032   -4.1184    0.9556 C   0  0
   20.1030   -5.4088    1.3910 C   0  0
   21.4780   -6.1291    2.2461 S   0  0
   22.4578   -4.6779    1.9863 C   0  0
   21.7006   -3.7152    1.3268 N   0  0
   23.6265   -4.5791    2.3348 O   0  0
   22.2807   -2.4292    1.0079 C   0  0
   23.1662   -2.4688   -0.2398 C   0  0
   23.7628   -1.1750   -0.4094 O   0  0
   25.1298   -1.2299   -0.3961 C   0  0
   25.8406   -1.7216   -1.4882 C   0  0
   27.2387   -1.6863   -1.4769 C   0  0
   27.9325   -1.1564   -0.3777 C   0  0
   27.2002   -0.6694    0.7146 C   0  0
   25.8028   -0.6939    0.6986 C   0  0
   29.4484   -1.0886   -0.3790 C   0  0
   30.1234   -2.3935    0.0812 C   0  0  2  0  0  0
   31.6178   -2.1307    0.3480 C   0  0
   29.9231   -3.3760   -0.9437 O   0  0
   29.2630   -4.5557   -0.4558 C   0  0
   32.3897   -3.2066    0.0113 O   0  0
   32.0636   -1.1005    0.8417 O   0  0
   16.6436   -5.9398    0.0956 C   0  0
   15.4155   -5.4002    0.1791 C   0  0
   14.1950   -6.2154    0.0212 C   0  0
   13.0445   -5.6990   -0.5917 C   0  0
   11.8715   -6.4668   -0.6950 C   0  0
   11.8559   -7.7658   -0.1729 C   0  0
   12.9876   -8.2872    0.4570 C   0  0
   14.1384   -7.5067    0.5594 C   0  0
   13.1112   -9.5283    1.0184 O   0  0
   10.8156   -5.8475   -1.3192 O   0  0
   33.7997   -3.0215    0.2119 C   0  0
   34.5118   -4.2775   -0.2506 C   0  0
   29.8470   -5.8592   -2.3683 F   0  0
   11.9917  -10.3965    0.9188 C   0  0
    9.5914   -6.5687   -1.4074 C   0  0
   17.4988   -3.4111   -0.6402 H   0  0
   18.6363   -6.9844    1.5000 H   0  0
   19.6996   -2.3936   -0.1459 H   0  0
   21.5073   -1.6591    0.9181 H   0  0
   22.8994   -2.1170    1.8598 H   0  0
   23.9102   -3.2725   -0.1576 H   0  0
   22.5579   -2.6768   -1.1273 H   0  0
   25.3165   -2.1106   -2.3562 H   0  0
   27.7868   -2.0613   -2.3407 H   0  0
   27.7119   -0.2425    1.5749 H   0  0
   25.2435   -0.2868    1.5359 H   0  0
   29.7823   -0.8314   -1.3935 H   0  0
   29.7549   -0.2485    0.2569 H   0  0
   29.6988   -2.7248    1.0383 H   0  0
   29.9562   -5.0927    0.2006 H   0  0
   28.3793   -4.2714    0.1270 H   0  0
   16.7714   -6.9898   -0.1660 H   0  0
   15.2662   -4.3552    0.4351 H   0  0
   13.0648   -4.6896   -0.9962 H   0  0
   10.9625   -8.3693   -0.2499 H   0  0
   14.9988   -7.9216    1.0814 H   0  0
   34.1459   -2.1616   -0.3723 H   0  0
   33.9988   -2.8522    1.2758 H   0  0
   35.5935   -4.1832   -0.1200 H   0  0
   34.2982   -4.4753   -1.3063 H   0  0
   34.1619   -5.1487    0.3134 H   0  0
   12.2597  -11.3456    1.3931 H   0  0
   11.7443  -10.6057   -0.1273 H   0  0
   11.1278   -9.9891    1.4541 H   0  0
    8.8605   -5.9254   -1.9068 H   0  0
    9.2019   -6.8071   -0.4123 H   0  0
    9.7111   -7.4723   -2.0139 H   0  0
  1  3  1  0
  1 42  1  0
  2  1  1  0
  4  5  2  0
  4 45  1  0
  5  6  1  0
  5 30  1  0
  6  9  2  0
  6 46  1  0
  7  4  1  0
  7 47  1  0
  8  7  2  0
  8  9  1  0
  9 10  1  0
 10 11  1  0
 11 12  1  0
 11 13  2  0
 12  8  1  0
 12 14  1  0
 14 15  1  0
 14 48  1  0
 14 49  1  0
 15 16  1  0
 15 50  1  0
 15 51  1  0
 16 17  1  0
 17 18  2  0
 18 19  1  0
 18 52  1  0
 19 20  2  0
 19 53  1  0
 20 21  1  0
 20 23  1  0
 21 22  2  0
 21 54  1  0
 22 17  1  0
 22 55  1  0
 23 24  1  0
 23 56  1  0
 23 57  1  0
 24 25  1  0
 24 26  1  0
 24 58  1  0
 25 28  1  0
 25 29  2  0
 26 27  1  0
 27  1  1  0
 27 59  1  0
 27 60  1  0
 28 40  1  0
 30 31  2  0
 30 61  1  0
 31 32  1  0
 31 62  1  0
 32 33  2  0
 33 34  1  0
 33 63  1  0
 34 35  2  0
 34 39  1  0
 35 36  1  0
 35 64  1  0
 36 37  2  0
 36 38  1  0
 37 32  1  0
 37 65  1  0
 38 43  1  0
 39 44  1  0
 40 41  1  0
 40 66  1  0
 40 67  1  0
 41 68  1  0
 41 69  1  0
 41 70  1  0
 43 71  1  0
 43 72  1  0
 43 73  1  0
 44 74  1  0
 44 75  1  0
 44 76  1  0
M  END
> <Name>
CHEMBL4163242

> <Clean Energy>
53.151199

> <chembl_id>
CHEMBL4163242

> <chembl_pref_name>
None

> <efficacy>
1.07

> <Forcefield>
MMFF

> <ForcefieldBase>
MMFF

> <ForcefieldFFML>
<?xml version="1.0" encoding="UTF-8"?>
<!DOCTYPE ffml SYSTEM "Ffml.dtd">
<ffml version="1.0">
<forcefield name="MMFF" derivedFrom="MMFF" base="MMFF">
<atomTypes>
<atomType
name="C100"
element="C"
mass="12.011"
annotation=""/>
<atomType
name="F101"
element="F"
mass="18.998"
annotation=""/>
<atomType
name="S102"
element="S"
mass="32.066"
annotation=""/>
<atomType
name="N103"
element="N"
mass="14.007"
annotation=""/>
<atomType
name="O104"
element="O"
mass="16"
annotation=""/>
<atomType
name="H105"
element="H"
mass="1.008"
annotation=""/>
</atomTypes>
<parameters>
</parameters>
</forcefield>
</ffml>

> <Initial Potential Energy>
280.81378

> <Initial RMS Gradient>
27.0452

> <Minimization Criteria>
STEEPD> Minimization exiting with gradient tolerance ( 3.0000000) satisfied.

> <CHARMm Energy>
127.59122

> <Potential Energy>
127.59122

> <RMS Gradient>
0.06206

> <Bond Energy>
7.51838

> <Angle Energy>
31.97241

> <STRBend>
0.42553

> <Dihedral Energy>
15.78635

> <OOPLane>
0.16934

> <Van der Waals Energy>
75.85282

> <Electrostatic Energy>
-4.13362

> <Hydrogen Bond Energy>
0

> <Solvation Free Energy>
0

> <HasGasteigerCharges>
true

> <REMARK99>
REMARK  99  MacroMolecule created from Mol2 file
REMARK  99  CHEMBL4163242
REMARK  99  PROTEIN
REMARK  99  GASTEIGER
REMARK  99
REMARK  99

$$$$
CHEMBL1935499
  SciTegic05292516403D

 72 74  0  0  0  0            999 V2000
   19.2927  -11.8796   -0.2637 C   0  0
   24.6581  -11.8098    2.3763 C   0  0
   23.7752  -11.1671    3.2088 C   0  0
   22.5539  -11.1802    2.6073 O   0  0
   22.7354  -11.8426    1.4039 C   0  0
   23.9978  -12.2211    1.2420 N   0  0
   23.8712  -10.5224    4.5285 C   0  0
   26.1030  -12.0678    2.5600 C   0  0
   26.9624  -11.1001    1.7565 C   0  0
   28.3261  -11.3486    2.1095 O   0  0
   29.2338  -11.0192    1.1463 C   0  0
   30.3429  -11.8530    1.0752 C   0  0
   30.1192   -9.7104   -0.6780 C   0  0
   29.1296   -9.9338    0.2827 C   0  0
   21.6853  -12.0740    0.4711 C   0  0
   20.4286  -11.6552    0.6939 C   0  0
   31.2223  -10.5688   -0.7802 C   0  0
   31.3263  -11.6554    0.0972 C   0  0
   32.4727  -12.6155    0.0424 C   0  0
   33.2401  -12.5461   -1.1966 N   0  0
   33.5156  -11.1901   -1.7279 C   0  0  1  0  0  0
   32.2279  -10.3687   -1.8862 C   0  0
   34.0362  -13.5937   -1.6116 C   0  0
   33.6169  -14.9559   -1.2289 C   0  0
   35.1054  -13.3890   -2.1849 O   0  0
   34.5283  -15.8307   -0.7823 C   0  0
   34.1509  -17.1400   -0.3073 C   0  0
   35.0305  -17.9951    0.2280 C   0  0
   34.6643  -19.3471    0.7467 C   0  0
   34.6081  -10.4327   -0.9488 C   0  0
   35.6239  -11.2260   -0.5163 O   0  0
   34.6946   -9.2160   -0.8474 O   0  0
   18.7264  -10.5480   -0.7671 C   0  0
   17.4701  -10.7080   -1.6439 C   0  0
   16.8882   -9.3305   -1.9712 C   0  0
   17.7547  -11.4680   -2.9403 C   0  0
   18.5096  -12.4453    0.2547 H   0  0
   19.6263  -12.4928   -1.1081 H   0  0
   23.7352  -11.2620    5.3232 H   0  0
   23.1063   -9.7485    4.6454 H   0  0
   24.8496  -10.0505    4.6620 H   0  0
   26.3704  -12.0046    3.6223 H   0  0
   26.3370  -13.0977    2.2626 H   0  0
   26.7838  -11.2619    0.6848 H   0  0
   26.7140  -10.0620    2.0089 H   0  0
   30.4232  -12.6838    1.7735 H   0  0
   30.0219   -8.8636   -1.3548 H   0  0
   28.2918   -9.2472    0.3417 H   0  0
   21.9452  -12.6079   -0.4364 H   0  0
   20.1884  -11.1244    1.6137 H   0  0
   33.1674  -12.3942    0.8625 H   0  0
   32.0977  -13.6300    0.2033 H   0  0
   33.9452  -11.3044   -2.7334 H   0  0
   31.7343  -10.6885   -2.8141 H   0  0
   32.4539   -9.3016   -1.9954 H   0  0
   32.5643  -15.1953   -1.2986 H   0  0
   35.5810  -15.5543   -0.7326 H   0  0
   33.0987  -17.4168   -0.3704 H   0  0
   36.0852  -17.7338    0.3026 H   0  0
   34.9252  -19.4222    1.8067 H   0  0
   35.2169  -20.1179    0.2007 H   0  0
   33.5948  -19.5560    0.6432 H   0  0
   35.5976  -12.1092   -0.9495 H   0  0
   18.4732   -9.9193    0.0973 H   0  0
   19.5018  -10.0081   -1.3269 H   0  0
   16.7140  -11.2660   -1.0773 H   0  0
   15.9707   -9.4254   -2.5616 H   0  0
   17.5988   -8.7245   -2.5435 H   0  0
   16.6383   -8.7854   -1.0548 H   0  0
   16.8610  -11.5044   -3.5728 H   0  0
   18.0501  -12.5022   -2.7400 H   0  0
   18.5550  -10.9885   -3.5140 H   0  0
  1 33  1  0
  1 37  1  0
  1 38  1  0
  2  3  2  0
  2  8  1  0
  3  4  1  0
  3  7  1  0
  4  5  1  0
  5  6  2  0
  5 15  1  0
  6  2  1  0
  7 39  1  0
  7 40  1  0
  7 41  1  0
  8  9  1  0
  8 42  1  0
  8 43  1  0
  9 10  1  0
  9 44  1  0
  9 45  1  0
 10 11  1  0
 11 12  2  0
 12 18  1  0
 12 46  1  0
 13 14  2  0
 13 47  1  0
 14 11  1  0
 14 48  1  0
 15 16  2  0
 15 49  1  0
 16  1  1  0
 16 50  1  0
 17 13  1  0
 17 18  2  0
 17 22  1  0
 18 19  1  0
 19 20  1  0
 19 51  1  0
 19 52  1  0
 20 21  1  0
 20 23  1  0
 21 22  1  0
 21 30  1  0
 21 53  1  0
 22 54  1  0
 22 55  1  0
 23 24  1  0
 23 25  2  0
 24 26  2  0
 24 56  1  0
 26 27  1  0
 26 57  1  0
 27 28  2  0
 27 58  1  0
 28 29  1  0
 28 59  1  0
 29 60  1  0
 29 61  1  0
 29 62  1  0
 30 31  1  0
 30 32  2  0
 31 63  1  0
 33 34  1  0
 33 64  1  0
 33 65  1  0
 34 35  1  0
 34 36  1  0
 34 66  1  0
 35 67  1  0
 35 68  1  0
 35 69  1  0
 36 70  1  0
 36 71  1  0
 36 72  1  0
M  END
> <Name>
CHEMBL1935499

> <Clean Energy>
54.416401

> <chembl_id>
CHEMBL1935499

> <chembl_pref_name>
None

> <efficacy>
1.031578947

> <Forcefield>
MMFF

> <ForcefieldBase>
MMFF

> <ForcefieldFFML>
<?xml version="1.0" encoding="UTF-8"?>
<!DOCTYPE ffml SYSTEM "Ffml.dtd">
<ffml version="1.0">
<forcefield name="MMFF" derivedFrom="MMFF" base="MMFF">
<atomTypes>
<atomType
name="C100"
element="C"
mass="12.011"
annotation=""/>
<atomType
name="O101"
element="O"
mass="16"
annotation=""/>
<atomType
name="N102"
element="N"
mass="14.007"
annotation=""/>
<atomType
name="H103"
element="H"
mass="1.008"
annotation=""/>
</atomTypes>
<parameters>
</parameters>
</forcefield>
</ffml>

> <Initial Potential Energy>
115.61363

> <Initial RMS Gradient>
20.15301

> <Minimization Criteria>
STEEPD> Minimization exiting with gradient tolerance ( 3.0000000) satisfied.

> <CHARMm Energy>
22.00962

> <Potential Energy>
22.00962

> <RMS Gradient>
0.02357

> <Bond Energy>
5.44374

> <Angle Energy>
17.07964

> <STRBend>
-0.17128

> <Dihedral Energy>
-3.70078

> <OOPLane>
1.13996

> <Van der Waals Energy>
56.57831

> <Electrostatic Energy>
-54.35996

> <Hydrogen Bond Energy>
0

> <Solvation Free Energy>
0

> <HasGasteigerCharges>
true

> <REMARK99>
REMARK  99  MacroMolecule created from Mol2 file
REMARK  99  CHEMBL1935499
REMARK  99  PROTEIN
REMARK  99  GASTEIGER
REMARK  99
REMARK  99

$$$$
CHEMBL3398443
  SciTegic05292516403D

 69 73  0  0  0  0            999 V2000
    0.9320   -0.4033    0.1649 C   0  0
    1.2740    0.9347   -0.0213 C   0  0
   -0.3898   -0.7462    0.4690 C   0  0
   -1.3789    0.2405    0.5971 C   0  0
    0.2909    1.9201    0.0956 C   0  0
   -1.0250    1.5803    0.4116 C   0  0
   -2.8019   -0.1506    0.9197 C   0  0
   -3.5946   -0.5607   -0.3420 C   0  0  2  0  0  0
   -4.0935    0.6689   -1.1155 C   0  0
   -5.3731    0.9821   -0.5048 N   0  0
   -5.8805   -0.1214    0.2929 C   0  0
   -4.9290   -1.2690   -0.0360 C   0  0  2  0  0  0
   -4.8686   -2.2971    1.0595 C   0  0
   -5.2471   -2.1103    2.2046 O   0  0
   -4.3575   -3.4770    0.6533 O   0  0
   -5.9565    2.2231   -0.6094 C   0  0
   -5.4592    3.1359   -1.2596 O   0  0
   -7.1330    2.2922    0.1240 O   0  0
   -7.8210    3.5123    0.1180 C   0  0
    7.5257   -3.5132   -0.7779 C   0  0
    8.1496   -2.4369   -0.1293 C   0  0
    8.1524   -4.7592   -0.8619 C   0  0
    7.4669   -1.1484   -0.0490 C   0  0
    6.1303    0.5131   -0.1174 C   0  0
    3.6125    0.4973   -0.1724 C   0  0
    4.8975    1.2836   -0.4158 C   0  0
    6.2475   -0.8204   -0.4465 N   0  0
   10.0456   -3.8872    0.3509 C   0  0
    9.4191   -2.6407    0.4335 C   0  0
    7.7834    2.2240    1.0187 C   0  0
    7.3000    0.9439    0.4728 C   0  0
    2.5188    1.4046   -0.3331 O   0  0
    9.4114   -4.9453   -0.2965 C   0  0
    8.1567   -0.1166    0.5306 O   0  0
   -8.0978    4.0914    1.3553 C   0  0
   -8.8304    5.2753    1.4061 C   0  0
   -9.2897    5.8615    0.2247 C   0  0
   -9.0230    5.2623   -1.0086 C   0  0
   -8.2924    4.0771   -1.0655 C   0  0
    1.6634   -1.1997    0.0743 H   0  0
   -0.6430   -1.7940    0.6141 H   0  0
    0.5626    2.9626   -0.0505 H   0  0
   -1.7642    2.3718    0.5113 H   0  0
   -2.7506   -0.9808    1.6340 H   0  0
   -3.2985    0.6683    1.4554 H   0  0
   -2.9682   -1.1923   -0.9835 H   0  0
   -3.4243    1.5318   -1.0999 H   0  0
   -4.2929    0.4117   -2.1626 H   0  0
   -5.8609    0.1822    1.3454 H   0  0
   -6.9163   -0.3425    0.0154 H   0  0
   -5.3020   -1.7596   -0.9463 H   0  0
   -4.0348   -3.5008   -0.2684 H   0  0
    6.5461   -3.3837   -1.2304 H   0  0
    7.6514   -5.5804   -1.3676 H   0  0
    3.6148    0.0856    0.8451 H   0  0
    3.5347   -0.3186   -0.9013 H   0  0
    4.8743    2.1993    0.1890 H   0  0
    4.9245    1.6211   -1.4593 H   0  0
   11.0268   -4.0297    0.7950 H   0  0
    9.9275   -1.8281    0.9476 H   0  0
    8.8755    2.2835    0.9756 H   0  0
    7.4747    2.3319    2.0628 H   0  0
    7.3784    3.0674    0.4512 H   0  0
    9.8964   -5.9150   -0.3598 H   0  0
   -7.7357    3.6291    2.2687 H   0  0
   -9.0434    5.7424    2.3641 H   0  0
   -9.8561    6.7876    0.2656 H   0  0
   -9.3813    5.7200   -1.9260 H   0  0
   -8.0795    3.6122   -2.0232 H   0  0
  1  3  2  0
  1 40  1  0
  2  1  1  0
  3  4  1  0
  3 41  1  0
  4  6  2  0
  4  7  1  0
  5  2  2  0
  5 42  1  0
  6  5  1  0
  6 43  1  0
  7 44  1  0
  7 45  1  0
  8  7  1  0
  8  9  1  0
  8 46  1  0
  9 10  1  0
  9 47  1  0
  9 48  1  0
 10 11  1  0
 10 16  1  0
 11 12  1  0
 11 49  1  0
 11 50  1  0
 12  8  1  0
 12 13  1  0
 12 51  1  0
 13 14  2  0
 13 15  1  0
 15 52  1  0
 16 17  2  0
 16 18  1  0
 18 19  1  0
 19 35  2  0
 20 22  1  0
 20 53  1  0
 21 20  2  0
 22 33  2  0
 22 54  1  0
 23 21  1  0
 23 27  2  0
 24 26  1  0
 24 31  2  0
 25 32  1  0
 25 55  1  0
 25 56  1  0
 26 25  1  0
 26 57  1  0
 26 58  1  0
 27 24  1  0
 28 29  2  0
 28 59  1  0
 29 21  1  0
 29 60  1  0
 30 61  1  0
 30 62  1  0
 30 63  1  0
 31 30  1  0
 31 34  1  0
 32  2  1  0
 33 28  1  0
 33 64  1  0
 34 23  1  0
 35 36  1  0
 35 65  1  0
 36 37  2  0
 36 66  1  0
 37 38  1  0
 37 67  1  0
 38 39  2  0
 38 68  1  0
 39 19  1  0
 39 69  1  0
M  END
> <Name>
CHEMBL3398443

> <Clean Energy>
69.474098

> <chembl_id>
CHEMBL3398443

> <chembl_pref_name>
None

> <efficacy>
0.99

> <Forcefield>
MMFF

> <ForcefieldBase>
MMFF

> <ForcefieldFFML>
<?xml version="1.0" encoding="UTF-8"?>
<!DOCTYPE ffml SYSTEM "Ffml.dtd">
<ffml version="1.0">
<forcefield name="MMFF" derivedFrom="MMFF" base="MMFF">
<atomTypes>
<atomType
name="C100"
element="C"
mass="12.011"
annotation=""/>
<atomType
name="N101"
element="N"
mass="14.007"
annotation=""/>
<atomType
name="O102"
element="O"
mass="16"
annotation=""/>
<atomType
name="H103"
element="H"
mass="1.008"
annotation=""/>
</atomTypes>
<parameters>
</parameters>
</forcefield>
</ffml>

> <Initial Potential Energy>
143.10867

> <Initial RMS Gradient>
29.39365

> <Minimization Criteria>
CONJUG> Minimization exiting with gradient tolerance ( 0.0100000) satisfied.

> <CHARMm Energy>
31.71571

> <Potential Energy>
31.71571

> <RMS Gradient>
0.00978

> <Bond Energy>
6.53868

> <Angle Energy>
23.63592

> <STRBend>
-0.85438

> <Dihedral Energy>
3.73464

> <OOPLane>
0.08352

> <Van der Waals Energy>
66.57011

> <Electrostatic Energy>
-67.99278

> <Hydrogen Bond Energy>
0

> <Solvation Free Energy>
0

> <HasGasteigerCharges>
true

> <REMARK99>
REMARK  99  MacroMolecule created from Mol2 file
REMARK  99  CHEMBL3398443
REMARK  99  PROTEIN
REMARK  99  GASTEIGER
REMARK  99
REMARK  99

$$$$
CHEMBL386957
  SciTegic05292516403D

 54 57  0  0  0  0            999 V2000
    9.9048   -1.9667    0.6708 C   0  0  1  0  0  0
    9.3977   -2.8536    1.8060 C   0  0
    9.0974   -4.1669    1.1294 C   0  0
   10.1184   -4.2152    0.0173 C   0  0
   10.4545   -2.8605   -0.3380 O   0  0
    5.2490   -1.9549    0.3829 C   0  0
    5.0813   -2.6890   -0.7824 C   0  0
    6.0836   -2.8756   -1.6711 N   0  0
    7.2787   -2.3058   -1.4016 C   0  0
    7.5373   -1.5550   -0.2633 C   0  0
    6.4881   -1.3745    0.6378 C   0  0
    3.9189   -3.3169   -1.1366 O   0  0
    2.7193   -2.8035   -0.5555 C   0  0
    1.5375   -3.3433   -1.3544 C   0  0
    0.2308   -2.7812   -0.9200 C   0  0
   -0.2407   -1.4891   -1.0188 C   0  0
   -1.5078   -1.4652   -0.5139 O   0  0
   -1.7662   -2.7653   -0.1558 C   0  0
   -0.7433   -3.5794   -0.3556 N   0  0
   -3.1023   -3.0517    0.3663 C   0  0
   -4.0556   -2.0375    0.5558 C   0  0
   -5.3319   -2.3344    1.0417 C   0  0
   -5.6710   -3.6507    1.3450 C   0  0
   -4.7416   -4.6710    1.1641 C   0  0
   -3.4643   -4.3717    0.6788 C   0  0
    0.2983   -0.2159   -1.5278 C   0  0
    8.9019   -0.9914    0.0208 C   0  0
   11.0620   -1.1065    1.1954 C   0  0
   12.2295   -1.3581    0.5576 O   0  0
   10.9441   -0.2732    2.0821 O   0  0
   10.1872   -3.0192    2.5512 H   0  0
    8.5431   -2.4397    2.3478 H   0  0
    9.1713   -5.0257    1.8027 H   0  0
    8.0845   -4.1668    0.7161 H   0  0
   11.0405   -4.7016    0.3528 H   0  0
    9.7519   -4.7432   -0.8676 H   0  0
    4.4563   -1.8312    1.1092 H   0  0
    8.0504   -2.4904   -2.1456 H   0  0
    6.6286   -0.7999    1.5508 H   0  0
    2.6420   -3.1336    0.4877 H   0  0
    2.7183   -1.7067   -0.5895 H   0  0
    1.6866   -3.1286   -2.4204 H   0  0
    1.5192   -4.4377   -1.2778 H   0  0
   -3.8077   -1.0041    0.3217 H   0  0
   -6.0608   -1.5396    1.1805 H   0  0
   -6.6633   -3.8833    1.7207 H   0  0
   -5.0079   -5.6989    1.3975 H   0  0
   -2.7488   -5.1801    0.5377 H   0  0
   -0.4950    0.3973   -1.9666 H   0  0
    1.0533   -0.3911   -2.3001 H   0  0
    0.7621    0.3514   -0.7153 H   0  0
    9.3181   -0.6145   -0.9240 H   0  0
    8.7715   -0.1025    0.6529 H   0  0
   12.0762   -2.0556   -0.1218 H   0  0
  1  2  1  0
  1 28  1  0
  2  3  1  0
  2 31  1  0
  2 32  1  0
  3  4  1  0
  3 33  1  0
  3 34  1  0
  4  5  1  0
  4 35  1  0
  4 36  1  0
  5  1  1  0
  6  7  2  0
  6 37  1  0
  7  8  1  0
  7 12  1  0
  8  9  2  0
  9 10  1  0
  9 38  1  0
 10 11  2  0
 10 27  1  0
 11  6  1  0
 11 39  1  0
 12 13  1  0
 13 14  1  0
 13 40  1  0
 13 41  1  0
 14 15  1  0
 14 42  1  0
 14 43  1  0
 15 16  2  0
 16 17  1  0
 16 26  1  0
 17 18  1  0
 18 19  2  0
 18 20  1  0
 19 15  1  0
 20 21  2  0
 21 22  1  0
 21 44  1  0
 22 23  2  0
 22 45  1  0
 23 24  1  0
 23 46  1  0
 24 25  2  0
 24 47  1  0
 25 20  1  0
 25 48  1  0
 26 49  1  0
 26 50  1  0
 26 51  1  0
 27  1  1  0
 27 52  1  0
 27 53  1  0
 28 29  1  0
 28 30  2  0
 29 54  1  0
M  END
> <Name>
CHEMBL386957

> <Clean Energy>
62.0079

> <chembl_id>
CHEMBL386957

> <chembl_pref_name>
None

> <efficacy>
0.967391304

> <Forcefield>
MMFF

> <ForcefieldBase>
MMFF

> <ForcefieldFFML>
<?xml version="1.0" encoding="UTF-8"?>
<!DOCTYPE ffml SYSTEM "Ffml.dtd">
<ffml version="1.0">
<forcefield name="MMFF" derivedFrom="MMFF" base="MMFF">
<atomTypes>
<atomType
name="C100"
element="C"
mass="12.011"
annotation=""/>
<atomType
name="O101"
element="O"
mass="16"
annotation=""/>
<atomType
name="N102"
element="N"
mass="14.007"
annotation=""/>
<atomType
name="H103"
element="H"
mass="1.008"
annotation=""/>
</atomTypes>
<parameters>
</parameters>
</forcefield>
</ffml>

> <Initial Potential Energy>
155.56595

> <Initial RMS Gradient>
27.00269

> <Minimization Criteria>
STEEPD> Minimization exiting with gradient tolerance ( 3.0000000) satisfied.

> <CHARMm Energy>
70.75014

> <Potential Energy>
70.75014

> <RMS Gradient>
0.04465

> <Bond Energy>
4.62056

> <Angle Energy>
12.69448

> <STRBend>
0.77572

> <Dihedral Energy>
4.78326

> <OOPLane>
0.02802

> <Van der Waals Energy>
47.27798

> <Electrostatic Energy>
0.57012

> <Hydrogen Bond Energy>
0

> <Solvation Free Energy>
0

> <HasGasteigerCharges>
true

> <REMARK99>
REMARK  99  MacroMolecule created from Mol2 file
REMARK  99  CHEMBL386957
REMARK  99  PROTEIN
REMARK  99  GASTEIGER
REMARK  99
REMARK  99

$$$$
CHEMBL429823
  SciTegic05292516403D

 68 72  0  0  0  0            999 V2000
    8.1964  -14.8666   -0.4144 O   0  0
    9.5197  -14.9018   -0.7410 C   0  0
    9.9071  -13.6224   -1.0804 C   0  0
    8.8205  -12.7777   -0.9812 N   0  0
    7.8250  -13.5581   -0.5959 C   0  0
    6.4264  -13.2298   -0.3350 C   0  0
    5.9530  -11.9339   -0.5892 C   0  0
    4.6206  -11.5953   -0.3414 C   0  0
    3.7417  -12.5523    0.1609 C   0  0
    4.1929  -13.8445    0.4176 C   0  0
    5.5266  -14.1813    0.1702 C   0  0
   10.1777  -16.2165   -0.6685 C   0  0
   11.2361  -13.1229   -1.5209 C   0  0
   12.1645  -12.7910   -0.3548 C   0  0
   13.4566  -12.4960   -0.8960 O   0  0
   14.4761  -12.2803   -0.0100 C   0  0
   14.3463  -12.1443    1.3707 C   0  0
   15.4748  -11.8973    2.1587 C   0  0
   16.7361  -11.7911    1.5722 C   0  0
   16.8871  -11.9444    0.1872 C   0  0
   15.7445  -12.1757   -0.5941 C   0  0
   18.2535  -11.8135   -0.4584 C   0  0
   19.2445  -12.7440    0.1242 N   0  0
   20.6218  -12.3664   -0.2837 C   0  0
   18.9554  -14.1396   -0.3250 C   0  0
   19.5704  -15.1063    0.6804 C   0  0
   19.9591  -16.2351    0.4229 O   0  0
   19.6791  -14.5493    1.9185 O   0  0
   21.0809  -11.0791    0.3780 C   0  0
   21.8119   -8.7753    1.7934 C   0  0
   21.7564   -9.9982    2.4521 C   0  0
   21.3904  -11.1400    1.7521 C   0  0
   21.5233   -8.6772    0.4248 C   0  0
   21.1629   -9.8334   -0.3131 C   0  0
   20.8976   -9.6620   -1.6956 C   0  0
   20.9805   -8.4130   -2.3153 C   0  0
   21.3254   -7.2958   -1.5711 C   0  0
   21.5923   -7.4277   -0.2106 C   0  0
    6.6276  -11.1756   -0.9834 H   0  0
    4.2738  -10.5850   -0.5410 H   0  0
    2.7061  -12.2884    0.3540 H   0  0
    3.5113  -14.5927    0.8121 H   0  0
    5.8611  -15.1945    0.3820 H   0  0
   10.0709  -16.6445    0.3329 H   0  0
   11.2463  -16.1379   -0.8907 H   0  0
    9.7305  -16.9080   -1.3891 H   0  0
   11.7128  -13.8686   -2.1700 H   0  0
   11.1106  -12.2321   -2.1495 H   0  0
   11.7752  -11.9228    0.1919 H   0  0
   12.2319  -13.6518    0.3231 H   0  0
   13.3831  -12.2106    1.8662 H   0  0
   15.3619  -11.7760    3.2332 H   0  0
   17.6023  -11.5777    2.1971 H   0  0
   15.8297  -12.2750   -1.6739 H   0  0
   18.1868  -11.9535   -1.5454 H   0  0
   18.5387  -10.7686   -0.2960 H   0  0
   21.3301  -13.1450    0.0327 H   0  0
   20.7148  -12.3358   -1.3739 H   0  0
   17.8827  -14.3593   -0.3253 H   0  0
   19.3572  -14.3334   -1.3253 H   0  0
   19.2700  -13.6510    1.8322 H   0  0
   22.0970   -7.8910    2.3598 H   0  0
   22.0033  -10.0585    3.5093 H   0  0
   21.3476  -12.0895    2.2832 H   0  0
   20.6253  -10.5025   -2.3260 H   0  0
   20.7870   -8.3162   -3.3806 H   0  0
   21.4016   -6.3228   -2.0482 H   0  0
   21.8686   -6.5387    0.3532 H   0  0
  1  2  1  0
  2  3  2  0
  2 12  1  0
  3  4  1  0
  3 13  1  0
  4  5  2  0
  5  1  1  0
  5  6  1  0
  6  7  2  0
  7  8  1  0
  7 39  1  0
  8  9  2  0
  8 40  1  0
  9 10  1  0
  9 41  1  0
 10 11  2  0
 10 42  1  0
 11  6  1  0
 11 43  1  0
 12 44  1  0
 12 45  1  0
 12 46  1  0
 13 14  1  0
 13 47  1  0
 13 48  1  0
 14 15  1  0
 14 49  1  0
 14 50  1  0
 15 16  1  0
 16 17  2  0
 17 18  1  0
 17 51  1  0
 18 19  2  0
 18 52  1  0
 19 20  1  0
 19 53  1  0
 20 21  2  0
 20 22  1  0
 21 16  1  0
 21 54  1  0
 22 23  1  0
 22 55  1  0
 22 56  1  0
 23 24  1  0
 23 25  1  0
 24 29  1  0
 24 57  1  0
 24 58  1  0
 25 26  1  0
 25 59  1  0
 25 60  1  0
 26 27  2  0
 26 28  1  0
 28 61  1  0
 29 34  2  0
 30 31  1  0
 30 62  1  0
 31 32  2  0
 31 63  1  0
 32 29  1  0
 32 64  1  0
 33 30  2  0
 33 34  1  0
 34 35  1  0
 35 36  2  0
 35 65  1  0
 36 37  1  0
 36 66  1  0
 37 38  2  0
 37 67  1  0
 38 33  1  0
 38 68  1  0
M  END
> <Name>
CHEMBL429823

> <Clean Energy>
39.173698

> <chembl_id>
CHEMBL429823

> <chembl_pref_name>
None

> <efficacy>
1.035

> <Forcefield>
MMFF

> <ForcefieldBase>
MMFF

> <ForcefieldFFML>
<?xml version="1.0" encoding="UTF-8"?>
<!DOCTYPE ffml SYSTEM "Ffml.dtd">
<ffml version="1.0">
<forcefield name="MMFF" derivedFrom="MMFF" base="MMFF">
<atomTypes>
<atomType
name="O100"
element="O"
mass="16"
annotation=""/>
<atomType
name="C101"
element="C"
mass="12.011"
annotation=""/>
<atomType
name="N102"
element="N"
mass="14.007"
annotation=""/>
<atomType
name="H103"
element="H"
mass="1.008"
annotation=""/>
</atomTypes>
<parameters>
</parameters>
</forcefield>
</ffml>

> <Initial Potential Energy>
283.81913

> <Initial RMS Gradient>
34.18005

> <Minimization Criteria>
STEEPD> Minimization exiting with gradient tolerance ( 3.0000000) satisfied.

> <CHARMm Energy>
101.58736

> <Potential Energy>
101.58736

> <RMS Gradient>
0.14512

> <Bond Energy>
10.01213

> <Angle Energy>
12.37657

> <STRBend>
0.22683

> <Dihedral Energy>
-1.36707

> <OOPLane>
0.05292

> <Van der Waals Energy>
80.10775

> <Electrostatic Energy>
0.17824

> <Hydrogen Bond Energy>
0

> <Solvation Free Energy>
0

> <HasGasteigerCharges>
true

> <REMARK99>
REMARK  99  MacroMolecule created from Mol2 file
REMARK  99  CHEMBL429823
REMARK  99  PROTEIN
REMARK  99  GASTEIGER
REMARK  99
REMARK  99

$$$$
CHEMBL181937
  SciTegic05292516403D

 62 65  0  0  0  0            999 V2000
   -3.5353   -7.5873   -0.9414 O   0  0
   -3.6536   -6.2620   -0.6624 C   0  0
   -4.7118   -5.7021   -0.9014 O   0  0
   -2.3783   -5.6359   -0.0829 C   0  0  2  0  0  0
   -2.1204   -6.2324    1.2980 C   0  0
   -2.4747   -4.2133    0.1066 O   0  0
   -1.8655   -3.4306   -0.8469 C   0  0
   -1.9312   -3.7500   -2.2109 C   0  0
   -1.2782   -2.9578   -3.1536 C   0  0
   -0.5571   -1.8455   -2.7413 C   0  0
   -0.5157   -1.5025   -1.3886 C   0  0
   -1.2013   -2.2565   -0.4141 C   0  0
   -1.1918   -1.9042    1.0708 C   0  0
   -0.8013   -0.4524    1.2659 C   0  0
   -1.6112    0.6692    1.1137 C   0  0
   -3.0566    0.7413    0.7413 C   0  0
    0.4821    0.0311    1.6873 C   0  0
    1.6799   -0.6184    2.0727 C   0  0
    2.7953    0.1251    2.4834 C   0  0
    3.9951   -0.3967    2.8974 O   0  0
    4.1620   -1.8064    2.7459 C   0  0
    3.3023   -2.5008    3.5280 F   0  0
    5.4234   -2.1330    3.1232 F   0  0
    3.9921   -2.1802    1.4575 F   0  0
    2.7197    1.5188    2.5086 C   0  0
    1.5547    2.1913    2.1119 C   0  0
    0.4450    1.4277    1.6871 C   0  0
   -0.8268    1.8158    1.2582 N   0  0
   -1.2505    3.1390    0.9858 C   0  0
   -2.3565    3.4820    1.4039 O   0  0
   -0.4767    4.1260    0.1772 C   0  0
   -0.8145    5.4867    0.2593 C   0  0
   -0.1979    6.4339   -0.5709 C   0  0
    0.4876    3.7160   -0.7486 C   0  0
    1.1190    4.6675   -1.5571 C   0  0
    0.7747    6.0228   -1.4815 C   0  0
    1.4546    6.8328   -2.3497 O   0  0
    1.0258    8.1884   -2.4450 C   0  0
   -4.4149   -7.8856   -1.2841 H   0  0
   -1.5342   -5.8934   -0.7355 H   0  0
   -1.2232   -5.7906    1.7451 H   0  0
   -1.9890   -7.3179    1.2525 H   0  0
   -2.9537   -6.0180    1.9771 H   0  0
   -2.5021   -4.6020   -2.5663 H   0  0
   -1.3300   -3.2113   -4.2092 H   0  0
   -0.0330   -1.2344   -3.4716 H   0  0
    0.0612   -0.6226   -1.1164 H   0  0
   -2.1866   -2.0601    1.5045 H   0  0
   -0.4911   -2.5677    1.5889 H   0  0
   -3.6425    1.1684    1.5611 H   0  0
   -3.4655   -0.2508    0.5280 H   0  0
   -3.1994    1.3515   -0.1564 H   0  0
    1.6840   -1.7037    2.0586 H   0  0
    3.5770    2.1042    2.8455 H   0  0
    1.5180    3.2770    2.1559 H   0  0
   -1.5777    5.8185    0.9622 H   0  0
   -0.5066    7.4720   -0.4854 H   0  0
    0.7424    2.6661   -0.8785 H   0  0
    1.8744    4.3539   -2.2754 H   0  0
    1.6189    8.6718   -3.2270 H   0  0
    1.2094    8.7224   -1.5071 H   0  0
   -0.0279    8.2503   -2.7364 H   0  0
  1 39  1  0
  2  1  1  0
  2  3  2  0
  2  4  1  0
  4  5  1  0
  4  6  1  0
  4 40  1  0
  5 41  1  0
  5 42  1  0
  5 43  1  0
  7  6  1  0
  8  7  1  0
  8 44  1  0
  9  8  2  0
  9 45  1  0
 10  9  1  0
 10 11  2  0
 10 46  1  0
 11 12  1  0
 11 47  1  0
 12  7  2  0
 13 12  1  0
 13 14  1  0
 13 48  1  0
 13 49  1  0
 14 17  1  0
 15 14  2  0
 15 28  1  0
 16 15  1  0
 16 50  1  0
 16 51  1  0
 16 52  1  0
 17 27  2  0
 18 17  1  0
 18 19  2  0
 18 53  1  0
 19 20  1  0
 21 20  1  0
 21 22  1  0
 21 23  1  0
 21 24  1  0
 25 19  1  0
 25 26  2  0
 25 54  1  0
 26 27  1  0
 26 55  1  0
 27 28  1  0
 29 28  1  0
 29 30  2  0
 29 31  1  0
 32 31  1  0
 32 56  1  0
 33 32  2  0
 33 36  1  0
 33 57  1  0
 34 31  2  0
 34 58  1  0
 35 34  1  0
 35 36  2  0
 35 59  1  0
 36 37  1  0
 38 37  1  0
 38 60  1  0
 38 61  1  0
 38 62  1  0
M  END
> <Name>
CHEMBL181937

> <Clean Energy>
73.403

> <chembl_id>
CHEMBL181937

> <chembl_pref_name>
None

> <efficacy>
0.97

> <Forcefield>
MMFF

> <ForcefieldBase>
MMFF

> <ForcefieldFFML>
<?xml version="1.0" encoding="UTF-8"?>
<!DOCTYPE ffml SYSTEM "Ffml.dtd">
<ffml version="1.0">
<forcefield name="MMFF" derivedFrom="MMFF" base="MMFF">
<atomTypes>
<atomType
name="O100"
element="O"
mass="16"
annotation=""/>
<atomType
name="C101"
element="C"
mass="12.011"
annotation=""/>
<atomType
name="F102"
element="F"
mass="18.998"
annotation=""/>
<atomType
name="N103"
element="N"
mass="14.007"
annotation=""/>
<atomType
name="H104"
element="H"
mass="1.008"
annotation=""/>
</atomTypes>
<parameters>
</parameters>
</forcefield>
</ffml>

> <Initial Potential Energy>
962.18202

> <Initial RMS Gradient>
357.56407

> <Minimization Criteria>
STEEPD> Minimization exiting with gradient tolerance ( 3.0000000) satisfied.

> <CHARMm Energy>
126.90638

> <Potential Energy>
126.90638

> <RMS Gradient>
0.02782

> <Bond Energy>
10.22637

> <Angle Energy>
27.93817

> <STRBend>
0.43803

> <Dihedral Energy>
17.17938

> <OOPLane>
0.21317

> <Van der Waals Energy>
70.35722

> <Electrostatic Energy>
0.55404

> <Hydrogen Bond Energy>
0

> <Solvation Free Energy>
0

> <HasGasteigerCharges>
true

> <REMARK99>
REMARK  99  MacroMolecule created from Mol2 file
REMARK  99  CHEMBL181937
REMARK  99  PROTEIN
REMARK  99  GASTEIGER
REMARK  99
REMARK  99

$$$$
CHEMBL367360
  SciTegic05292516403D

 58 61  0  0  0  0            999 V2000
    0.1396   -2.1548   -0.3465 N   0  0
    1.0825   -0.2135   -1.0589 C   0  0
    1.2724   -1.5899   -0.9429 C   0  0
   -0.7108   -1.1091    0.0349 C   0  0
   -0.2081    0.0675   -0.5174 C   0  0
   -0.1428   -3.5441   -0.2104 C   0  0
    1.9974    0.8041   -1.6876 C   0  0
    1.6267    3.4606   -0.6715 O   0  0
    1.5262    5.8344    0.0920 C   0  0
   -1.8886   -1.0881    0.8118 C   0  0
    2.8476    1.4213   -0.5904 C   0  0
    2.6507    2.7385   -0.1188 C   0  0
   -1.5098   -4.1058   -0.1322 C   0  0
   -0.9848    1.2421   -0.4253 C   0  0
    0.9133    4.4306    0.1142 C   0  0  2  0  0  0
    0.7794   -4.3639   -0.2103 O   0  0
    1.2609    6.7267    0.8858 O   0  0
   -2.5092   -3.6720   -1.0163 C   0  0
   -1.7761   -5.1252    0.7866 C   0  0
    2.4100   -2.4296   -1.4260 C   0  0
   -2.1857    1.2609    0.2883 C   0  0
   -2.6148    0.1053    0.9248 C   0  0
    2.3837    6.0325   -0.9426 O   0  0
   -4.0537   -5.2304   -0.0117 C   0  0
   -3.0564   -5.6792    0.8532 C   0  0
   -3.7852   -4.2324   -0.9491 C   0  0
   -5.6252   -5.9261    0.0663 Cl  0  0
   -2.8172    2.4743    0.3013 O   0  0
    3.9131    0.6706   -0.0538 C   0  0
    3.5345    3.2794    0.8218 C   0  0
    0.5353    3.9835    1.5275 C   0  0
   -4.0838    2.5331    0.9455 C   0  0
    4.5789    2.5139    1.3412 C   0  0
    4.7645    1.2074    0.9094 C   0  0
    2.6489    0.3450   -2.4398 H   0  0
    1.4175    1.5625   -2.2242 H   0  0
   -2.2537   -1.9719    1.3257 H   0  0
   -0.6415    2.1523   -0.9042 H   0  0
   -0.0332    4.5536   -0.4294 H   0  0
   -2.3038   -2.8974   -1.7544 H   0  0
   -0.9978   -5.5182    1.4394 H   0  0
    2.0577   -3.2138   -2.1033 H   0  0
    2.9353   -2.8878   -0.5823 H   0  0
    3.1387   -1.8374   -1.9864 H   0  0
   -3.5222    0.0880    1.5203 H   0  0
    2.4885    5.1991   -1.4527 H   0  0
   -3.2615   -6.4681    1.5714 H   0  0
   -4.5655   -3.9120   -1.6357 H   0  0
    4.0911   -0.3472   -0.3910 H   0  0
    3.4473    4.3035    1.1693 H   0  0
    0.2279    2.9354    1.5522 H   0  0
   -0.2869    4.5963    1.9136 H   0  0
    1.3636    4.1015    2.2324 H   0  0
   -4.4761    3.5465    0.8171 H   0  0
   -3.9870    2.3467    2.0200 H   0  0
   -4.7959    1.8393    0.4860 H   0  0
    5.2507    2.9425    2.0804 H   0  0
    5.5820    0.6124    1.3090 H   0  0
  2  3  2  0
  2  5  1  0
  3  1  1  0
  4  1  1  0
  5  4  1  0
  6  1  1  0
  7  2  1  0
  7 35  1  0
  7 36  1  0
  8 12  1  0
  9 15  1  0
 10  4  2  0
 10 37  1  0
 11  7  1  0
 12 11  1  0
 13  6  1  0
 14  5  2  0
 14 38  1  0
 15  8  1  0
 15 39  1  0
 16  6  2  0
 17  9  2  0
 18 13  2  0
 18 40  1  0
 19 13  1  0
 19 41  1  0
 20  3  1  0
 20 42  1  0
 20 43  1  0
 20 44  1  0
 21 14  1  0
 21 22  2  0
 22 10  1  0
 22 45  1  0
 23  9  1  0
 23 46  1  0
 24 25  1  0
 24 26  2  0
 25 19  2  0
 25 47  1  0
 26 18  1  0
 26 48  1  0
 27 24  1  0
 28 21  1  0
 29 11  2  0
 29 49  1  0
 30 12  2  0
 30 50  1  0
 31 15  1  0
 31 51  1  0
 31 52  1  0
 31 53  1  0
 32 28  1  0
 32 54  1  0
 32 55  1  0
 32 56  1  0
 33 30  1  0
 33 34  2  0
 33 57  1  0
 34 29  1  0
 34 58  1  0
M  END
> <Name>
CHEMBL367360

> <Clean Energy>
73.2313

> <chembl_id>
CHEMBL367360

> <chembl_pref_name>
None

> <efficacy>
0.97

> <Forcefield>
MMFF

> <ForcefieldBase>
MMFF

> <ForcefieldFFML>
<?xml version="1.0" encoding="UTF-8"?>
<!DOCTYPE ffml SYSTEM "Ffml.dtd">
<ffml version="1.0">
<forcefield name="MMFF" derivedFrom="MMFF" base="MMFF">
<atomTypes>
<atomType
name="N100"
element="N"
mass="14.007"
annotation=""/>
<atomType
name="C101"
element="C"
mass="12.011"
annotation=""/>
<atomType
name="O102"
element="O"
mass="16"
annotation=""/>
<atomType
name="Cl103"
element="Cl"
mass="35.453"
annotation=""/>
<atomType
name="H104"
element="H"
mass="1.008"
annotation=""/>
</atomTypes>
<parameters>
</parameters>
</forcefield>
</ffml>

> <Initial Potential Energy>
470.7943

> <Initial RMS Gradient>
119.05107

> <Minimization Criteria>
STEEPD> Minimization exiting with gradient tolerance ( 3.0000000) satisfied.

> <CHARMm Energy>
132.90781

> <Potential Energy>
132.90781

> <RMS Gradient>
0.09075

> <Bond Energy>
8.96948

> <Angle Energy>
23.99476

> <STRBend>
0.21094

> <Dihedral Energy>
12.11211

> <OOPLane>
0.22615

> <Van der Waals Energy>
66.08466

> <Electrostatic Energy>
21.30972

> <Hydrogen Bond Energy>
0

> <Solvation Free Energy>
0

> <HasGasteigerCharges>
true

> <REMARK99>
REMARK  99  MacroMolecule created from Mol2 file
REMARK  99  CHEMBL367360
REMARK  99  PROTEIN
REMARK  99  GASTEIGER
REMARK  99
REMARK  99

$$$$
CHEMBL4784296
  SciTegic05292516403D

 49 52  0  0  0  0            999 V2000
   16.3889  -14.6386   -0.9887 C   0  0
   16.2790  -16.0200   -1.1870 C   0  0
   17.4074  -16.8511   -1.1884 C   0  0
   17.6334  -14.0536   -0.7410 C   0  0
   18.7690  -14.8737   -0.7127 C   0  0
   18.6455  -16.2418   -0.9401 C   0  0
   19.9374  -16.7114   -0.8604 N   0  0
   20.7693  -15.6421   -0.6002 C   0  0
   20.0727  -14.5254   -0.4975 N   0  0
   20.3530  -18.0835   -1.0308 C   0  0
   22.2586  -15.7252   -0.5318 C   0  0
   22.6167  -16.6672    0.4841 O   0  0
   23.9544  -16.8371    0.7238 C   0  0
   24.2548  -17.6969    1.7863 C   0  0
   25.5792  -17.9738    2.1354 C   0  0
   26.6211  -17.3837    1.4247 C   0  0
   26.3263  -16.5108    0.3718 C   0  0
   24.9976  -16.2474    0.0099 C   0  0
   27.4054  -15.8747   -0.4148 C   0  0
   28.4004  -15.3864    0.3544 O   0  0
   27.3686  -15.7753   -1.6279 O   0  0
   15.0636  -16.6307   -1.4362 O   0  0
   14.0241  -16.2282   -0.6374 C   0  0
   14.0648  -16.3555    0.7484 C   0  0
   12.9961  -15.8786    1.4971 C   0  0
   11.9264  -15.3045    0.8259 C   0  0
   11.8372  -15.2076   -0.5202 N   0  0
   12.8897  -15.6845   -1.2237 C   0  0
   10.9198  -14.8024    1.6227 O   0  0
    9.8988  -14.1423    0.8818 C   0  0
   15.5127  -13.9972   -1.0240 H   0  0
   17.3116  -17.9158   -1.3681 H   0  0
   17.7295  -12.9849   -0.5828 H   0  0
   21.2777  -18.1117   -1.6121 H   0  0
   19.5834  -18.6403   -1.5699 H   0  0
   20.5058  -18.5192   -0.0404 H   0  0
   22.6441  -16.0459   -1.5069 H   0  0
   22.6586  -14.7348   -0.2828 H   0  0
   23.4479  -18.1633    2.3477 H   0  0
   25.7931  -18.6586    2.9531 H   0  0
   27.6493  -17.6317    1.6772 H   0  0
   24.8178  -15.5824   -0.8301 H   0  0
   28.2079  -15.3870    1.3111 H   0  0
   14.9239  -16.7980    1.2428 H   0  0
   12.9984  -15.9356    2.5796 H   0  0
   12.8105  -15.5910   -2.3024 H   0  0
    9.1623  -13.7616    1.5962 H   0  0
    9.3823  -14.8380    0.2113 H   0  0
   10.2992  -13.2853    0.3288 H   0  0
  1  2  2  0
  1 31  1  0
  2  3  1  0
  2 22  1  0
  3  6  2  0
  3 32  1  0
  4  1  1  0
  4 33  1  0
  5  4  2  0
  5  6  1  0
  6  7  1  0
  7  8  1  0
  7 10  1  0
  8  9  2  0
  8 11  1  0
  9  5  1  0
 10 34  1  0
 10 35  1  0
 10 36  1  0
 11 12  1  0
 11 37  1  0
 11 38  1  0
 12 13  1  0
 13 14  2  0
 14 15  1  0
 14 39  1  0
 15 16  2  0
 15 40  1  0
 16 17  1  0
 16 41  1  0
 17 18  2  0
 17 19  1  0
 18 13  1  0
 18 42  1  0
 19 20  1  0
 19 21  2  0
 20 43  1  0
 22 23  1  0
 23 24  2  0
 24 25  1  0
 24 44  1  0
 25 26  2  0
 25 45  1  0
 26 27  1  0
 26 29  1  0
 27 28  2  0
 28 23  1  0
 28 46  1  0
 29 30  1  0
 30 47  1  0
 30 48  1  0
 30 49  1  0
M  END
> <Name>
CHEMBL4784296

> <Clean Energy>
32.779099

> <chembl_id>
CHEMBL4784296

> <chembl_pref_name>
None

> <efficacy>
1.01

> <Forcefield>
MMFF

> <ForcefieldBase>
MMFF

> <ForcefieldFFML>
<?xml version="1.0" encoding="UTF-8"?>
<!DOCTYPE ffml SYSTEM "Ffml.dtd">
<ffml version="1.0">
<forcefield name="MMFF" derivedFrom="MMFF" base="MMFF">
<atomTypes>
<atomType
name="C100"
element="C"
mass="12.011"
annotation=""/>
<atomType
name="N101"
element="N"
mass="14.007"
annotation=""/>
<atomType
name="O102"
element="O"
mass="16"
annotation=""/>
<atomType
name="H103"
element="H"
mass="1.008"
annotation=""/>
</atomTypes>
<parameters>
</parameters>
</forcefield>
</ffml>

> <Initial Potential Energy>
207.42984

> <Initial RMS Gradient>
47.02646

> <Minimization Criteria>
CONJUG> Minimization exiting with gradient tolerance ( 0.0100000) satisfied.

> <CHARMm Energy>
61.07751

> <Potential Energy>
61.07751

> <RMS Gradient>
0.00826

> <Bond Energy>
4.12725

> <Angle Energy>
17.83712

> <STRBend>
0.44678

> <Dihedral Energy>
11.79997

> <OOPLane>
0.09186

> <Van der Waals Energy>
62.60223

> <Electrostatic Energy>
-35.82771

> <Hydrogen Bond Energy>
0

> <Solvation Free Energy>
0

> <HasGasteigerCharges>
true

> <REMARK99>
REMARK  99  MacroMolecule created from Mol2 file
REMARK  99  CHEMBL4784296
REMARK  99  PROTEIN
REMARK  99  GASTEIGER
REMARK  99
REMARK  99

$$$$
CHEMBL1935607
  SciTegic05292516403D

 74 76  0  0  0  0            999 V2000
   20.0568  -19.5127   -0.1569 C   0  0
   25.4054  -21.8746    0.0904 C   0  0
   25.3799  -21.5204   -1.2419 C   0  0
   24.0878  -21.2207   -1.5701 O   0  0
   23.3915  -21.4096   -0.4053 C   0  0
   24.1425  -21.7667    0.6187 N   0  0
   26.3929  -21.3864   -2.3040 C   0  0
   26.5554  -22.2565    0.9447 C   0  0
   27.1675  -21.0275    1.6000 C   0  0
   28.4411  -21.3853    2.1511 O   0  0
   29.4445  -20.4961    1.8809 C   0  0
   30.7241  -21.0395    1.7600 C   0  0
   30.3108  -18.2988    1.3725 C   0  0
   29.2527  -19.1197    1.7441 C   0  0
   21.9227  -21.1858   -0.4579 C   0  0
   21.5704  -19.7377   -0.1201 C   0  0
   31.5715  -18.8542    1.1723 C   0  0
   31.7963  -20.2172    1.4107 C   0  0
   33.2125  -20.7140    1.3184 C   0  0
   33.8576  -20.2080    0.1031 N   0  0
   33.7217  -18.7447   -0.1764 C   0  0  1  0  0  0
   32.7453  -18.0109    0.7805 C   0  0
   34.5387  -21.0122   -0.7893 C   0  0
   34.3532  -22.4741   -0.6901 C   0  0
   35.3474  -20.5421   -1.5937 O   0  0
   35.4111  -23.2872   -0.8185 C   0  0
   35.2848  -24.7214   -0.7190 C   0  0
   36.3384  -25.5432   -0.8005 C   0  0
   36.2509  -27.0306   -0.6943 C   0  0
   34.9882  -17.8824   -0.1502 C   0  0
   36.1563  -18.5019   -0.3989 O   0  0
   34.9673  -16.6666    0.0127 O   0  0
   19.7025  -18.0621    0.1825 C   0  0
   18.1871  -17.8118    0.2920 C   0  0
   17.9308  -16.3829    0.7775 C   0  0
   17.4588  -18.0453   -1.0323 C   0  0
   19.5688  -20.1870    0.5570 H   0  0
   19.6832  -19.7676   -1.1551 H   0  0
   26.1583  -22.0497   -3.1420 H   0  0
   27.3913  -21.6419   -1.9364 H   0  0
   26.4217  -20.3576   -2.6756 H   0  0
   26.2406  -22.9699    1.7156 H   0  0
   27.3108  -22.7805    0.3464 H   0  0
   27.2435  -20.2436    0.8359 H   0  0
   26.5276  -20.6559    2.4089 H   0  0
   30.8689  -22.1036    1.9276 H   0  0
   30.1454  -17.2316    1.2454 H   0  0
   28.2831  -18.6637    1.9187 H   0  0
   21.5474  -21.4424   -1.4555 H   0  0
   21.4352  -21.8643    0.2520 H   0  0
   21.9564  -19.4845    0.8757 H   0  0
   22.0611  -19.0599   -0.8304 H   0  0
   33.7845  -20.3302    2.1730 H   0  0
   33.2481  -21.8029    1.3893 H   0  0
   33.3363  -18.6821   -1.2032 H   0  0
   32.4023  -17.0838    0.3024 H   0  0
   33.2569  -17.7187    1.7085 H   0  0
   33.3499  -22.8466   -0.5310 H   0  0
   36.4044  -22.8748   -0.9925 H   0  0
   34.2854  -25.1303   -0.5680 H   0  0
   37.3430  -25.1484   -0.9532 H   0  0
   36.8609  -27.3810    0.1439 H   0  0
   36.6283  -27.4928   -1.6116 H   0  0
   35.2239  -27.3748   -0.5361 H   0  0
   36.0442  -19.3763   -0.8393 H   0  0
   20.1729  -17.8000    1.1391 H   0  0
   20.1360  -17.3951   -0.5737 H   0  0
   17.7699  -18.4993    1.0387 H   0  0
   16.8580  -16.1997    0.9005 H   0  0
   18.3217  -15.6455    0.0680 H   0  0
   18.4106  -16.2091    1.7466 H   0  0
   16.3963  -17.7949   -0.9405 H   0  0
   17.5172  -19.0937   -1.3400 H   0  0
   17.8829  -17.4298   -1.8327 H   0  0
  1 33  1  0
  1 37  1  0
  1 38  1  0
  2  3  2  0
  2  8  1  0
  3  4  1  0
  3  7  1  0
  4  5  1  0
  5  6  2  0
  5 15  1  0
  6  2  1  0
  7 39  1  0
  7 40  1  0
  7 41  1  0
  8  9  1  0
  8 42  1  0
  8 43  1  0
  9 10  1  0
  9 44  1  0
  9 45  1  0
 10 11  1  0
 11 12  2  0
 12 18  1  0
 12 46  1  0
 13 14  2  0
 13 47  1  0
 14 11  1  0
 14 48  1  0
 15 16  1  0
 15 49  1  0
 15 50  1  0
 16  1  1  0
 16 51  1  0
 16 52  1  0
 17 13  1  0
 17 18  2  0
 17 22  1  0
 18 19  1  0
 19 20  1  0
 19 53  1  0
 19 54  1  0
 20 21  1  0
 20 23  1  0
 21 22  1  0
 21 30  1  0
 21 55  1  0
 22 56  1  0
 22 57  1  0
 23 24  1  0
 23 25  2  0
 24 26  2  0
 24 58  1  0
 26 27  1  0
 26 59  1  0
 27 28  2  0
 27 60  1  0
 28 29  1  0
 28 61  1  0
 29 62  1  0
 29 63  1  0
 29 64  1  0
 30 31  1  0
 30 32  2  0
 31 65  1  0
 33 34  1  0
 33 66  1  0
 33 67  1  0
 34 35  1  0
 34 36  1  0
 34 68  1  0
 35 69  1  0
 35 70  1  0
 35 71  1  0
 36 72  1  0
 36 73  1  0
 36 74  1  0
M  END
> <Name>
CHEMBL1935607

> <Clean Energy>
53.9552

> <chembl_id>
CHEMBL1935607

> <chembl_pref_name>
None

> <efficacy>
0.936842105

> <Forcefield>
MMFF

> <ForcefieldBase>
MMFF

> <ForcefieldFFML>
<?xml version="1.0" encoding="UTF-8"?>
<!DOCTYPE ffml SYSTEM "Ffml.dtd">
<ffml version="1.0">
<forcefield name="MMFF" derivedFrom="MMFF" base="MMFF">
<atomTypes>
<atomType
name="C100"
element="C"
mass="12.011"
annotation=""/>
<atomType
name="O101"
element="O"
mass="16"
annotation=""/>
<atomType
name="N102"
element="N"
mass="14.007"
annotation=""/>
<atomType
name="H103"
element="H"
mass="1.008"
annotation=""/>
</atomTypes>
<parameters>
</parameters>
</forcefield>
</ffml>

> <Initial Potential Energy>
111.15417

> <Initial RMS Gradient>
19.28855

> <Minimization Criteria>
STEEPD> Minimization exiting with gradient tolerance ( 3.0000000) satisfied.

> <CHARMm Energy>
20.09615

> <Potential Energy>
20.09615

> <RMS Gradient>
0.04919

> <Bond Energy>
5.59327

> <Angle Energy>
17.01819

> <STRBend>
0.5696

> <Dihedral Energy>
-3.67618

> <OOPLane>
0.29767

> <Van der Waals Energy>
62.23339

> <Electrostatic Energy>
-61.93979

> <Hydrogen Bond Energy>
0

> <Solvation Free Energy>
0

> <HasGasteigerCharges>
true

> <REMARK99>
REMARK  99  MacroMolecule created from Mol2 file
REMARK  99  CHEMBL1935607
REMARK  99  PROTEIN
REMARK  99  GASTEIGER
REMARK  99
REMARK  99

$$$$
CHEMBL1947145
  SciTegic05292516403D

 52 57  0  0  0  0            999 V2000
    6.5695  -17.6635   -1.7473 C   0  0
    6.5830  -18.9771   -1.2445 C   0  0
    7.4848  -19.3396   -0.2427 C   0  0
    7.4342  -16.6814   -1.2467 C   0  0
    8.3134  -17.0428   -0.2443 C   0  0
    8.3402  -18.3603    0.2299 C   0  0
    9.3522  -18.4549    1.1921 N   0  0
    9.9772  -17.1944    1.3329 C   0  0
    9.3252  -16.3230    0.4267 N   0  0
   10.8769  -16.9531    2.1233 O   0  0
    9.5908  -14.9687    0.2522 C   0  0
    9.7098  -19.6383    1.9356 C   0  0
   10.4612  -20.6671    1.1179 C   0  0
   10.1155  -22.0211    1.1969 C   0  0
   10.8264  -22.9740    0.4694 C   0  0
   11.8955  -22.5876   -0.3403 C   0  0
   12.2788  -21.2393   -0.4335 C   0  0
   11.5501  -20.2932    0.3107 C   0  0
    9.2511  -12.8487   -0.1825 O   0  0
    8.6661  -14.0937   -0.1907 N   0  0
   10.5431  -12.9521    0.2098 C   0  0
   10.8306  -14.2788    0.4903 C   0  0
   12.1580  -14.5904    0.8544 C   0  0
   13.1055  -13.5581    0.9449 C   0  0
   12.7469  -12.2375    0.6750 C   0  0
   11.4458  -11.8925    0.3030 C   0  0
   13.4444  -20.8229   -1.3230 C   0  0  2  0  0  0
   14.7638  -21.4465   -0.9021 C   0  0
   15.5697  -20.4486   -0.4833 N   0  0
   14.9810  -19.2578   -0.6528 C   0  0
   13.7368  -19.4142   -1.1769 O   0  0
   15.0774  -22.6267   -0.9499 O   0  0
   15.4841  -18.1773   -0.3979 O   0  0
   13.1721  -21.0856   -2.8025 C   0  0
   13.9419  -11.0000    0.7901 Cl  0  0
    5.8797  -17.4052   -2.5467 H   0  0
    5.8887  -19.7140   -1.6488 H   0  0
    7.5129  -20.3556    0.1305 H   0  0
    7.4066  -15.6812   -1.6626 H   0  0
   10.3411  -19.3554    2.7863 H   0  0
    8.7880  -20.0648    2.3491 H   0  0
    9.2918  -22.3479    1.8283 H   0  0
   10.5506  -24.0244    0.5359 H   0  0
   12.4338  -23.3594   -0.8907 H   0  0
   11.8265  -19.2398    0.2670 H   0  0
   12.4728  -15.6119    1.0477 H   0  0
   14.1298  -13.7993    1.2241 H   0  0
   11.1499  -10.8716    0.0848 H   0  0
   16.5069  -20.5722   -0.1375 H   0  0
   14.0040  -20.7323   -3.4236 H   0  0
   12.2787  -20.5451   -3.1365 H   0  0
   13.0284  -22.1506   -3.0145 H   0  0
  1  2  2  0
  1 36  1  0
  2  3  1  0
  2 37  1  0
  3  6  2  0
  3 38  1  0
  4  1  1  0
  4 39  1  0
  5  4  2  0
  5  6  1  0
  6  7  1  0
  7  8  1  0
  7 12  1  0
  8  9  1  0
  8 10  2  0
  9  5  1  0
  9 11  1  0
 11 22  1  0
 12 13  1  0
 12 40  1  0
 12 41  1  0
 13 14  2  0
 14 15  1  0
 14 42  1  0
 15 16  2  0
 15 43  1  0
 16 17  1  0
 16 44  1  0
 17 18  2  0
 17 27  1  0
 18 13  1  0
 18 45  1  0
 19 20  1  0
 20 11  2  0
 21 19  1  0
 21 22  2  0
 22 23  1  0
 23 24  2  0
 23 46  1  0
 24 25  1  0
 24 47  1  0
 25 26  2  0
 25 35  1  0
 26 21  1  0
 26 48  1  0
 27 28  1  0
 27 34  1  0
 28 29  1  0
 28 32  2  0
 29 30  1  0
 29 49  1  0
 30 31  1  0
 30 33  2  0
 31 27  1  0
 34 50  1  0
 34 51  1  0
 34 52  1  0
M  END
> <Name>
CHEMBL1947145

> <Clean Energy>
94.956802

> <chembl_id>
CHEMBL1947145

> <chembl_pref_name>
None

> <efficacy>
1.01

> <Forcefield>
MMFF

> <ForcefieldBase>
MMFF

> <ForcefieldFFML>
<?xml version="1.0" encoding="UTF-8"?>
<!DOCTYPE ffml SYSTEM "Ffml.dtd">
<ffml version="1.0">
<forcefield name="MMFF" derivedFrom="MMFF" base="MMFF">
<atomTypes>
<atomType
name="C100"
element="C"
mass="12.011"
annotation=""/>
<atomType
name="N101"
element="N"
mass="14.007"
annotation=""/>
<atomType
name="O102"
element="O"
mass="16"
annotation=""/>
<atomType
name="Cl103"
element="Cl"
mass="35.453"
annotation=""/>
<atomType
name="H104"
element="H"
mass="1.008"
annotation=""/>
</atomTypes>
<parameters>
</parameters>
</forcefield>
</ffml>

> <Initial Potential Energy>
84.01122

> <Initial RMS Gradient>
33.1875

> <Minimization Criteria>
STEEPD> Minimization exiting with gradient tolerance ( 3.0000000) satisfied.

> <CHARMm Energy>
-1.336

> <Potential Energy>
-1.336

> <RMS Gradient>
0.09789

> <Bond Energy>
8.49972

> <Angle Energy>
34.10984

> <STRBend>
-2.51043

> <Dihedral Energy>
11.08552

> <OOPLane>
0.08737

> <Van der Waals Energy>
54.75731

> <Electrostatic Energy>
-107.36533

> <Hydrogen Bond Energy>
0

> <Solvation Free Energy>
0

> <HasGasteigerCharges>
true

> <REMARK99>
REMARK  99  MacroMolecule created from Mol2 file
REMARK  99  CHEMBL1947145
REMARK  99  PROTEIN
REMARK  99  GASTEIGER
REMARK  99
REMARK  99

$$$$
CHEMBL397120
  SciTegic05292516403D

 69 73  0  0  0  0            999 V2000
   -9.1887   -4.1967    0.1020 C   0  0
   -7.8944   -3.7073    0.2922 C   0  0
   -7.5822   -2.3677    0.0120 C   0  0
   -8.6006   -1.5295   -0.4657 C   0  0
   -9.8958   -2.0176   -0.6562 C   0  0
  -10.1875   -3.3501   -0.3723 C   0  0
   -6.2235   -1.8824    0.2288 C   0  0
   -5.1570   -2.5307    0.6634 N   0  0
   -4.1528   -1.5809    0.6993 C   0  0
   -4.6655   -0.3721    0.2760 C   0  0
   -5.9796   -0.5595   -0.0467 O   0  0
   -4.1369    0.9950    0.1285 C   0  0
   -2.7976   -1.9125    1.2239 C   0  0
   -1.6611   -1.8005    0.2035 C   0  0
   -0.4321   -2.0260    0.9102 O   0  0
    0.7494   -1.7456    0.2788 C   0  0
    1.8731   -1.7029    1.1125 C   0  0
    3.1450   -1.4037    0.6029 C   0  0
    3.3236   -1.1661   -0.7648 C   0  0
    2.1938   -1.2241   -1.5987 C   0  0
    0.9193   -1.5159   -1.0835 C   0  0
    4.6710   -0.7412   -1.3351 C   0  0
    5.8576   -1.4509   -0.7914 N   0  0
    7.0952   -0.7393   -1.1854 C   0  0
    5.8553   -2.8616   -1.2758 C   0  0
    6.7215   -3.8156   -0.4511 C   0  0
    6.7969   -5.0242   -0.6369 O   0  0
    7.4417   -3.2412    0.5338 O   0  0
    7.3689    0.4525   -0.3174 C   0  0
    8.2616    0.6805    0.7091 C   0  0
    8.0566    2.0171    1.1355 C   0  0
    7.0435    2.5358    0.3550 C   0  0
    6.6374    1.5860   -0.5457 O   0  0
    6.3102    3.8010    0.3177 C   0  0
    6.9051    5.0673    0.4761 C   0  0
    6.1176    6.2316    0.4737 C   0  0
    4.7340    6.1516    0.3133 C   0  0
    4.1311    4.9095    0.1497 C   0  0
    4.9114    3.7488    0.1514 C   0  0
    8.6133    5.2961    0.6522 Cl  0  0
   -9.4144   -5.2364    0.3244 H   0  0
   -7.1198   -4.3766    0.6645 H   0  0
   -8.3922   -0.4860   -0.6925 H   0  0
  -10.6744   -1.3558   -1.0253 H   0  0
  -11.1943   -3.7299   -0.5196 H   0  0
   -4.8911    1.7374    0.4074 H   0  0
   -3.8411    1.1774   -0.9090 H   0  0
   -3.2617    1.1487    0.7671 H   0  0
   -2.5804   -1.2576    2.0781 H   0  0
   -2.8020   -2.9289    1.6384 H   0  0
   -1.7813   -2.5544   -0.5831 H   0  0
   -1.6576   -0.8001   -0.2454 H   0  0
    1.7554   -1.8905    2.1775 H   0  0
    3.9973   -1.3472    1.2795 H   0  0
    2.2926   -1.0298   -2.6650 H   0  0
    0.0846   -1.5570   -1.7745 H   0  0
    4.6558   -0.8442   -2.4289 H   0  0
    4.7258    0.3315   -1.1276 H   0  0
    7.9656   -1.4012   -1.1015 H   0  0
    7.0559   -0.4325   -2.2388 H   0  0
    4.8460   -3.2832   -1.2079 H   0  0
    6.1828   -2.9101   -2.3208 H   0  0
    7.9296   -3.9855    0.9437 H   0  0
    8.9729   -0.0323    1.1038 H   0  0
    8.5724    2.5293    1.9363 H   0  0
    6.5771    7.2130    0.5953 H   0  0
    4.1394    7.0639    0.3152 H   0  0
    3.0530    4.8235    0.0271 H   0  0
    4.4079    2.7865    0.0400 H   0  0
  1  2  2  0
  1 41  1  0
  2  3  1  0
  2 42  1  0
  3  4  2  0
  3  7  1  0
  4  5  1  0
  4 43  1  0
  5  6  2  0
  5 44  1  0
  6  1  1  0
  6 45  1  0
  7  8  2  0
  8  9  1  0
  9 10  2  0
  9 13  1  0
 10 11  1  0
 10 12  1  0
 11  7  1  0
 12 46  1  0
 12 47  1  0
 12 48  1  0
 13 14  1  0
 13 49  1  0
 13 50  1  0
 14 15  1  0
 14 51  1  0
 14 52  1  0
 15 16  1  0
 16 17  2  0
 17 18  1  0
 17 53  1  0
 18 19  2  0
 18 54  1  0
 19 20  1  0
 19 22  1  0
 20 21  2  0
 20 55  1  0
 21 16  1  0
 21 56  1  0
 22 23  1  0
 22 57  1  0
 22 58  1  0
 23 24  1  0
 23 25  1  0
 24 29  1  0
 24 59  1  0
 24 60  1  0
 25 26  1  0
 25 61  1  0
 25 62  1  0
 26 27  2  0
 26 28  1  0
 28 63  1  0
 29 30  2  0
 30 31  1  0
 30 64  1  0
 31 32  2  0
 31 65  1  0
 32 33  1  0
 32 34  1  0
 33 29  1  0
 34 35  2  0
 35 36  1  0
 35 40  1  0
 36 37  2  0
 36 66  1  0
 37 38  1  0
 37 67  1  0
 38 39  2  0
 38 68  1  0
 39 34  1  0
 39 69  1  0
M  END
> <Name>
CHEMBL397120

> <Clean Energy>
57.960999

> <chembl_id>
CHEMBL397120

> <chembl_pref_name>
None

> <efficacy>
1.055

> <Forcefield>
MMFF

> <ForcefieldBase>
MMFF

> <ForcefieldFFML>
<?xml version="1.0" encoding="UTF-8"?>
<!DOCTYPE ffml SYSTEM "Ffml.dtd">
<ffml version="1.0">
<forcefield name="MMFF" derivedFrom="MMFF" base="MMFF">
<atomTypes>
<atomType
name="C100"
element="C"
mass="12.011"
annotation=""/>
<atomType
name="N101"
element="N"
mass="14.007"
annotation=""/>
<atomType
name="O102"
element="O"
mass="16"
annotation=""/>
<atomType
name="Cl103"
element="Cl"
mass="35.453"
annotation=""/>
<atomType
name="H104"
element="H"
mass="1.008"
annotation=""/>
</atomTypes>
<parameters>
</parameters>
</forcefield>
</ffml>

> <Initial Potential Energy>
264.98793

> <Initial RMS Gradient>
32.53814

> <Minimization Criteria>
CONJUG> Minimization exiting with gradient tolerance ( 0.0100000) satisfied.

> <CHARMm Energy>
105.2051

> <Potential Energy>
105.2051

> <RMS Gradient>
0.00905

> <Bond Energy>
8.56484

> <Angle Energy>
17.73242

> <STRBend>
1.41326

> <Dihedral Energy>
4.66625

> <OOPLane>
0.12171

> <Van der Waals Energy>
63.58143

> <Electrostatic Energy>
9.1252

> <Hydrogen Bond Energy>
0

> <Solvation Free Energy>
0

> <HasGasteigerCharges>
true

> <REMARK99>
REMARK  99  MacroMolecule created from Mol2 file
REMARK  99  CHEMBL397120
REMARK  99  PROTEIN
REMARK  99  GASTEIGER
REMARK  99
REMARK  99

$$$$
CHEMBL458221
  SciTegic05292516403D

 61 64  0  0  0  0            999 V2000
    5.1444  -16.4860    1.4356 C   0  0
    5.0855  -17.6135    0.6118 C   0  0
    6.2192  -18.0200   -0.0928 C   0  0
    6.3136  -15.7216    1.5001 C   0  0
    7.4328  -16.0972    0.7573 C   0  0
    7.3779  -17.2521   -0.0154 C   0  0
    8.5009  -17.6726   -0.7563 O   0  0
    9.6996  -16.9525   -0.7584 C   0  0
    9.7122  -15.7083    0.0395 C   0  0
    8.6486  -15.3087    0.7546 C   0  0
   10.8868  -14.8190    0.0950 C   0  0
   12.0309  -15.5371    0.1041 O   0  0
   10.8052  -13.6014    0.1846 O   0  0
   13.2264  -14.7533    0.1454 C   0  0
   10.6702  -17.3342   -1.4080 O   0  0
    3.9700  -18.3892    0.4529 O   0  0
    2.7267  -17.6759    0.4774 C   0  0
    1.7642  -18.3815   -0.4685 C   0  0
    0.5227  -17.6006   -0.6991 C   0  0
    0.3420  -16.4500   -1.4365 C   0  0
   -0.9788  -16.1102   -1.3663 O   0  0
   -1.5489  -17.0910   -0.5894 C   0  0
   -0.6798  -17.9875   -0.1530 N   0  0
    1.2272  -15.5697   -2.2211 C   0  0
   -2.9841  -17.0060   -0.3503 C   0  0
   -3.7798  -16.0090   -0.9205 C   0  0
   -5.1581  -15.9650   -0.6731 C   0  0
   -5.7913  -16.9133    0.1522 C   0  0
   -4.9821  -17.9089    0.7196 C   0  0
   -3.6035  -17.9538    0.4716 C   0  0
   -7.3070  -16.8343    0.3989 C   0  0
   -8.0583  -16.9548   -0.9447 C   0  0
   -7.8487  -17.9459    1.3260 C   0  0
   -7.6568  -15.4816    1.0563 C   0  0
    4.2910  -16.1847    2.0363 H   0  0
    6.1860  -18.9107   -0.7128 H   0  0
    6.3284  -14.8341    2.1283 H   0  0
    8.6680  -14.3907    1.3369 H   0  0
   14.0800  -15.4352    0.1030 H   0  0
   13.2777  -14.1880    1.0810 H   0  0
   13.2749  -14.0815   -0.7174 H   0  0
    2.3333  -17.6753    1.5008 H   0  0
    2.8574  -16.6365    0.1492 H   0  0
    2.2594  -18.5688   -1.4300 H   0  0
    1.5207  -19.3733   -0.0681 H   0  0
    0.7218  -15.2170   -3.1254 H   0  0
    2.1364  -16.0964   -2.5266 H   0  0
    1.5187  -14.6985   -1.6268 H   0  0
   -3.3430  -15.2534   -1.5698 H   0  0
   -5.7317  -15.1691   -1.1429 H   0  0
   -5.3936  -18.6773    1.3679 H   0  0
   -3.0110  -18.7459    0.9282 H   0  0
   -9.1440  -16.9359   -0.7937 H   0  0
   -7.8085  -17.8935   -1.4534 H   0  0
   -7.8164  -16.1351   -1.6300 H   0  0
   -8.9311  -17.8462    1.4718 H   0  0
   -7.3853  -17.9051    2.3186 H   0  0
   -7.6712  -18.9432    0.9067 H   0  0
   -8.7291  -15.4138    1.2744 H   0  0
   -7.4069  -14.6310    0.4128 H   0  0
   -7.1153  -15.3503    2.0007 H   0  0
  1  2  2  0
  1 35  1  0
  2  3  1  0
  2 16  1  0
  3  6  2  0
  3 36  1  0
  4  1  1  0
  4 37  1  0
  5  4  2  0
  5  6  1  0
  5 10  1  0
  6  7  1  0
  7  8  1  0
  8  9  1  0
  8 15  2  0
  9 10  2  0
  9 11  1  0
 10 38  1  0
 11 12  1  0
 11 13  2  0
 12 14  1  0
 14 39  1  0
 14 40  1  0
 14 41  1  0
 16 17  1  0
 17 18  1  0
 17 42  1  0
 17 43  1  0
 18 19  1  0
 18 44  1  0
 18 45  1  0
 19 20  2  0
 20 21  1  0
 20 24  1  0
 21 22  1  0
 22 23  2  0
 22 25  1  0
 23 19  1  0
 24 46  1  0
 24 47  1  0
 24 48  1  0
 25 26  2  0
 26 27  1  0
 26 49  1  0
 27 28  2  0
 27 50  1  0
 28 29  1  0
 28 31  1  0
 29 30  2  0
 29 51  1  0
 30 25  1  0
 30 52  1  0
 31 32  1  0
 31 33  1  0
 31 34  1  0
 32 53  1  0
 32 54  1  0
 32 55  1  0
 33 56  1  0
 33 57  1  0
 33 58  1  0
 34 59  1  0
 34 60  1  0
 34 61  1  0
M  END
> <Name>
CHEMBL458221

> <Clean Energy>
36.501202

> <chembl_id>
CHEMBL458221

> <chembl_pref_name>
None

> <efficacy>
2.39

> <Forcefield>
MMFF

> <ForcefieldBase>
MMFF

> <ForcefieldFFML>
<?xml version="1.0" encoding="UTF-8"?>
<!DOCTYPE ffml SYSTEM "Ffml.dtd">
<ffml version="1.0">
<forcefield name="MMFF" derivedFrom="MMFF" base="MMFF">
<atomTypes>
<atomType
name="C100"
element="C"
mass="12.011"
annotation=""/>
<atomType
name="O101"
element="O"
mass="16"
annotation=""/>
<atomType
name="N102"
element="N"
mass="14.007"
annotation=""/>
<atomType
name="H103"
element="H"
mass="1.008"
annotation=""/>
</atomTypes>
<parameters>
</parameters>
</forcefield>
</ffml>

> <Initial Potential Energy>
139.4313

> <Initial RMS Gradient>
23.66224

> <Minimization Criteria>
CONJUG> Minimization exiting with gradient tolerance ( 0.0100000) satisfied.

> <CHARMm Energy>
71.8605

> <Potential Energy>
71.8605

> <RMS Gradient>
0.00822

> <Bond Energy>
6.82263

> <Angle Energy>
21.22712

> <STRBend>
-0.00972

> <Dihedral Energy>
7.49776

> <OOPLane>
0.08771

> <Van der Waals Energy>
64.63682

> <Electrostatic Energy>
-28.40182

> <Hydrogen Bond Energy>
0

> <Solvation Free Energy>
0

> <HasGasteigerCharges>
true

> <REMARK99>
REMARK  99  MacroMolecule created from Mol2 file
REMARK  99  CHEMBL458221
REMARK  99  PROTEIN
REMARK  99  GASTEIGER
REMARK  99
REMARK  99

$$$$
CHEMBL489766
  SciTegic05292516403D

 44 46  0  0  0  0            999 V2000
    9.0448    1.1839    0.3269 C   0  0
    9.0246   -0.1711   -0.0033 C   0  0
   10.1977   -0.8230   -0.3984 C   0  0
   11.3852   -0.0813   -0.4824 C   0  0
   11.4270    1.2750   -0.1221 C   0  0
   10.2396    1.9013    0.2748 C   0  0
   12.6960    2.0019   -0.1149 C   0  0
   14.0041    1.4545   -0.1645 C   0  0
   12.7609    3.3384   -0.0059 N   0  0
   14.1036    3.6603    0.0351 O   0  0
   14.8529    2.5265   -0.0433 C   0  0
   16.2983    2.6712    0.0428 C   0  0
   17.1240    1.5393   -0.0674 C   0  0
   18.5106    1.6452    0.0508 C   0  0
   19.0876    2.8868    0.2815 C   0  0
   18.2834    4.0199    0.3854 C   0  0
   16.8988    3.9175    0.2638 C   0  0
   10.1804   -2.2984   -0.7469 C   0  0
   11.2585   -3.1027    0.0138 C   0  0  1  0  0  0
   10.6143   -4.4115    0.4969 C   0  0
   12.3967   -3.2184   -0.8411 O   0  0
   13.5012   -3.8809   -0.2280 C   0  0
   14.6837   -3.7997   -1.1739 C   0  0
    9.8564   -4.2407    1.6133 O   0  0
   10.7404   -5.5064   -0.0305 O   0  0
    8.1286    1.6849    0.6301 H   0  0
    8.0801   -0.7076    0.0447 H   0  0
   12.2859   -0.5805   -0.8339 H   0  0
   10.2358    2.9536    0.5538 H   0  0
   14.2885    0.4165   -0.2328 H   0  0
   16.6997    0.5540   -0.2425 H   0  0
   19.1264    0.7529   -0.0312 H   0  0
   20.1664    2.9799    0.3778 H   0  0
   18.7386    4.9920    0.5613 H   0  0
   16.2985    4.8206    0.3544 H   0  0
    9.1798   -2.6925   -0.5289 H   0  0
   10.3217   -2.3885   -1.8318 H   0  0
   11.5854   -2.5661    0.9150 H   0  0
   13.7528   -3.3899    0.7185 H   0  0
   13.2582   -4.9299   -0.0361 H   0  0
   15.5604   -4.2939   -0.7460 H   0  0
   14.9354   -2.7553   -1.3868 H   0  0
   14.4440   -4.2718   -2.1324 H   0  0
    9.8600   -3.3270    1.9626 H   0  0
  1  2  2  0
  1 26  1  0
  2  3  1  0
  2 27  1  0
  3  4  2  0
  3 18  1  0
  4  5  1  0
  4 28  1  0
  5  6  2  0
  5  7  1  0
  6  1  1  0
  6 29  1  0
  7  8  1  0
  7  9  2  0
  8 11  2  0
  8 30  1  0
  9 10  1  0
 10 11  1  0
 11 12  1  0
 12 13  2  0
 13 14  1  0
 13 31  1  0
 14 15  2  0
 14 32  1  0
 15 16  1  0
 15 33  1  0
 16 17  2  0
 16 34  1  0
 17 12  1  0
 17 35  1  0
 18 19  1  0
 18 36  1  0
 18 37  1  0
 19 20  1  0
 19 21  1  0
 19 38  1  0
 20 24  1  0
 20 25  2  0
 21 22  1  0
 22 23  1  0
 22 39  1  0
 22 40  1  0
 23 41  1  0
 23 42  1  0
 23 43  1  0
 24 44  1  0
M  END
> <Name>
CHEMBL489766

> <Clean Energy>
42.558399

> <chembl_id>
CHEMBL489766

> <chembl_pref_name>
None

> <efficacy>
1.64

> <Forcefield>
MMFF

> <ForcefieldBase>
MMFF

> <ForcefieldFFML>
<?xml version="1.0" encoding="UTF-8"?>
<!DOCTYPE ffml SYSTEM "Ffml.dtd">
<ffml version="1.0">
<forcefield name="MMFF" derivedFrom="MMFF" base="MMFF">
<atomTypes>
<atomType
name="C100"
element="C"
mass="12.011"
annotation=""/>
<atomType
name="N101"
element="N"
mass="14.007"
annotation=""/>
<atomType
name="O102"
element="O"
mass="16"
annotation=""/>
<atomType
name="H103"
element="H"
mass="1.008"
annotation=""/>
</atomTypes>
<parameters>
</parameters>
</forcefield>
</ffml>

> <Initial Potential Energy>
173.4402

> <Initial RMS Gradient>
36.70326

> <Minimization Criteria>
CONJUG> Minimization exiting with gradient tolerance ( 0.0100000) satisfied.

> <CHARMm Energy>
74.70795

> <Potential Energy>
74.70795

> <RMS Gradient>
0.00921

> <Bond Energy>
4.62749

> <Angle Energy>
5.89354

> <STRBend>
0.33421

> <Dihedral Energy>
-1.81866

> <OOPLane>
0.03358

> <Van der Waals Energy>
44.50518

> <Electrostatic Energy>
21.13261

> <Hydrogen Bond Energy>
0

> <Solvation Free Energy>
0

> <HasGasteigerCharges>
true

> <REMARK99>
REMARK  99  MacroMolecule created from Mol2 file
REMARK  99  CHEMBL489766
REMARK  99  PROTEIN
REMARK  99  GASTEIGER
REMARK  99
REMARK  99

$$$$
CHEMBL521925
  SciTegic05292516403D

 46 48  0  0  0  0            999 V2000
    1.1731    0.7892    0.4645 C   0  0
    1.3165   -0.4517   -0.1561 C   0  0
    2.5786   -0.9004   -0.5635 C   0  0
    3.6959   -0.0749   -0.3608 C   0  0
    3.5486    1.1812    0.2404 C   0  0
    2.2863    1.6031    0.6673 C   0  0
    4.7015    2.0887    0.4159 C   0  0
    5.9821    1.8795   -0.3146 C   0  0
    4.6930    3.1144    1.2088 N   0  0
    5.9629    3.7357    1.0801 O   0  0
    6.5334    3.2799   -0.1584 C   0  0  1  0  0  0
    8.0438    3.3016   -0.1732 C   0  0
    8.7162    3.1948   -1.4040 C   0  0
   10.1071    3.1745   -1.4500 C   0  0
   10.8351    3.2444   -0.2651 C   0  0
   10.1861    3.3569    0.9623 C   0  0
    8.7945    3.3815    1.0093 C   0  0
    2.7456   -2.2607   -1.2048 C   0  0
    3.1332   -3.3509   -0.1865 C   0  0  1  0  0  0
    1.8616   -4.1427    0.1678 C   0  0
    4.2040   -4.0965   -0.7711 O   0  0
    4.7014   -5.1343    0.0740 C   0  0
    5.9124   -5.7511   -0.5986 C   0  0
    1.0795   -3.5351    1.0976 O   0  0
    1.5458   -5.2215   -0.3150 O   0  0
    0.1893    1.1319    0.7783 H   0  0
    0.4292   -1.0593   -0.3277 H   0  0
    4.6749   -0.4253   -0.6807 H   0  0
    2.1597    2.5754    1.1405 H   0  0
    6.5714    1.1229    0.2147 H   0  0
    5.8506    1.5966   -1.3615 H   0  0
    6.1533    3.9481   -0.9429 H   0  0
    8.1466    3.1094   -2.3276 H   0  0
   10.6384    3.1289   -2.4003 H   0  0
   11.9215    3.2388   -0.2997 H   0  0
   10.7767    3.4484    1.8731 H   0  0
    8.2931    3.4493    1.9731 H   0  0
    1.8217   -2.5233   -1.7371 H   0  0
    3.5100   -2.1736   -1.9891 H   0  0
    3.5263   -2.9115    0.7394 H   0  0
    4.9904   -4.7169    1.0448 H   0  0
    3.9394   -5.9039    0.2257 H   0  0
    6.3328   -6.5533    0.0142 H   0  0
    6.6856   -4.9947   -0.7695 H   0  0
    5.6431   -6.1587   -1.5786 H   0  0
    1.4454   -2.6901    1.4303 H   0  0
  1  2  2  0
  1 26  1  0
  2  3  1  0
  2 27  1  0
  3  4  2  0
  3 18  1  0
  4  5  1  0
  4 28  1  0
  5  6  2  0
  5  7  1  0
  6  1  1  0
  6 29  1  0
  7  8  1  0
  7  9  2  0
  8 11  1  0
  8 30  1  0
  8 31  1  0
  9 10  1  0
 10 11  1  0
 11 12  1  0
 11 32  1  0
 12 13  2  0
 13 14  1  0
 13 33  1  0
 14 15  2  0
 14 34  1  0
 15 16  1  0
 15 35  1  0
 16 17  2  0
 16 36  1  0
 17 12  1  0
 17 37  1  0
 18 19  1  0
 18 38  1  0
 18 39  1  0
 19 20  1  0
 19 21  1  0
 19 40  1  0
 20 24  1  0
 20 25  2  0
 21 22  1  0
 22 23  1  0
 22 41  1  0
 22 42  1  0
 23 43  1  0
 23 44  1  0
 23 45  1  0
 24 46  1  0
M  END
> <Name>
CHEMBL521925

> <Clean Energy>
46.626499

> <chembl_id>
CHEMBL521925

> <chembl_pref_name>
None

> <efficacy>
1.15

> <Forcefield>
MMFF

> <ForcefieldBase>
MMFF

> <ForcefieldFFML>
<?xml version="1.0" encoding="UTF-8"?>
<!DOCTYPE ffml SYSTEM "Ffml.dtd">
<ffml version="1.0">
<forcefield name="MMFF" derivedFrom="MMFF" base="MMFF">
<atomTypes>
<atomType
name="C100"
element="C"
mass="12.011"
annotation=""/>
<atomType
name="N101"
element="N"
mass="14.007"
annotation=""/>
<atomType
name="O102"
element="O"
mass="16"
annotation=""/>
<atomType
name="H103"
element="H"
mass="1.008"
annotation=""/>
</atomTypes>
<parameters>
</parameters>
</forcefield>
</ffml>

> <Initial Potential Energy>
227.1362

> <Initial RMS Gradient>
40.55963

> <Minimization Criteria>
CONJUG> Minimization exiting with gradient tolerance ( 0.0100000) satisfied.

> <CHARMm Energy>
94.50235

> <Potential Energy>
94.50235

> <RMS Gradient>
0.00995

> <Bond Energy>
4.74878

> <Angle Energy>
11.11231

> <STRBend>
0.72354

> <Dihedral Energy>
4.44324

> <OOPLane>
0.02027

> <Van der Waals Energy>
43.59968

> <Electrostatic Energy>
29.85452

> <Hydrogen Bond Energy>
0

> <Solvation Free Energy>
0

> <HasGasteigerCharges>
true

> <REMARK99>
REMARK  99  MacroMolecule created from Mol2 file
REMARK  99  CHEMBL521925
REMARK  99  PROTEIN
REMARK  99  GASTEIGER
REMARK  99
REMARK  99

$$$$
CHEMBL491627
  SciTegic05292516403D

 48 49  0  0  0  0            999 V2000
   -6.6692  -12.7422    0.3108 C   0  0
   -6.4781  -13.8826   -0.4694 C   0  0
   -5.1932  -14.4003   -0.6774 C   0  0
   -4.0963  -13.7426   -0.1024 C   0  0
   -4.2873  -12.6026    0.6928 C   0  0
   -5.5767  -12.1012    0.8934 C   0  0
   -3.1015  -11.9348    1.3005 C   0  0
   -3.2666  -11.2745    2.6543 C   0  0
   -1.9811  -11.9401    0.6402 N   0  0
   -0.9694  -11.2601    1.3369 O   0  0
    0.1238  -10.9854    0.4493 C   0  0
    0.2057   -9.5199    0.0722 C   0  0
    1.0688   -9.0866   -0.9489 C   0  0
    1.1638   -7.7310   -1.2772 C   0  0
    0.3981   -6.7909   -0.5898 C   0  0
   -0.4526   -7.1965    0.4325 C   0  0
   -0.5478   -8.5504    0.7608 C   0  0
   -5.0072  -15.6704   -1.4755 C   0  0
   -4.6612  -16.9030   -0.6232 C   0  0  1  0  0  0
   -5.8884  -17.3258    0.2119 C   0  0
   -4.2274  -17.9179   -1.5402 O   0  0
   -3.6064  -19.0292   -0.8969 C   0  0
   -3.1874  -20.0215   -1.9639 C   0  0
   -6.0774  -16.5864    1.3338 O   0  0
   -6.6314  -18.2604   -0.0576 O   0  0
    2.0470  -10.2001   -1.8402 Cl  0  0
   -7.6749  -12.3539    0.4603 H   0  0
   -7.3470  -14.3700   -0.9103 H   0  0
   -3.0864  -14.1153   -0.2716 H   0  0
   -5.7475  -11.2007    1.4771 H   0  0
   -3.2969  -10.1891    2.5249 H   0  0
   -2.4269  -11.5373    3.3047 H   0  0
   -4.1780  -11.6023    3.1601 H   0  0
    1.0403  -11.2620    0.9818 H   0  0
    0.0431  -11.6138   -0.4459 H   0  0
    1.8406   -7.3937   -2.0611 H   0  0
    0.4783   -5.7365   -0.8450 H   0  0
   -1.0383   -6.4584    0.9764 H   0  0
   -1.2250   -8.8478    1.5596 H   0  0
   -5.9054  -15.8742   -2.0741 H   0  0
   -4.2128  -15.4978   -2.2144 H   0  0
   -3.8317  -16.6844    0.0609 H   0  0
   -2.7250  -18.6880   -0.3431 H   0  0
   -4.3015  -19.5093   -0.2013 H   0  0
   -2.6993  -20.8921   -1.5172 H   0  0
   -2.4972  -19.5550   -2.6747 H   0  0
   -4.0565  -20.3591   -2.5384 H   0  0
   -5.4586  -15.8354    1.4328 H   0  0
  1  2  2  0
  1 27  1  0
  2  3  1  0
  2 28  1  0
  3  4  2  0
  3 18  1  0
  4  5  1  0
  4 29  1  0
  5  6  2  0
  5  7  1  0
  6  1  1  0
  6 30  1  0
  7  8  1  0
  7  9  2  0
  8 31  1  0
  8 32  1  0
  8 33  1  0
  9 10  1  0
 10 11  1  0
 11 12  1  0
 11 34  1  0
 11 35  1  0
 12 13  2  0
 13 14  1  0
 13 26  1  0
 14 15  2  0
 14 36  1  0
 15 16  1  0
 15 37  1  0
 16 17  2  0
 16 38  1  0
 17 12  1  0
 17 39  1  0
 18 19  1  0
 18 40  1  0
 18 41  1  0
 19 20  1  0
 19 21  1  0
 19 42  1  0
 20 24  1  0
 20 25  2  0
 21 22  1  0
 22 23  1  0
 22 43  1  0
 22 44  1  0
 23 45  1  0
 23 46  1  0
 23 47  1  0
 24 48  1  0
M  END
> <Name>
CHEMBL491627

> <Clean Energy>
29.9778

> <chembl_id>
CHEMBL491627

> <chembl_pref_name>
None

> <efficacy>
1.41

> <Forcefield>
MMFF

> <ForcefieldBase>
MMFF

> <ForcefieldFFML>
<?xml version="1.0" encoding="UTF-8"?>
<!DOCTYPE ffml SYSTEM "Ffml.dtd">
<ffml version="1.0">
<forcefield name="MMFF" derivedFrom="MMFF" base="MMFF">
<atomTypes>
<atomType
name="C100"
element="C"
mass="12.011"
annotation=""/>
<atomType
name="N101"
element="N"
mass="14.007"
annotation=""/>
<atomType
name="O102"
element="O"
mass="16"
annotation=""/>
<atomType
name="Cl103"
element="Cl"
mass="35.453"
annotation=""/>
<atomType
name="H104"
element="H"
mass="1.008"
annotation=""/>
</atomTypes>
<parameters>
</parameters>
</forcefield>
</ffml>

> <Initial Potential Energy>
197.46561

> <Initial RMS Gradient>
26.32627

> <Minimization Criteria>
STEEPD> Minimization exiting with gradient tolerance ( 3.0000000) satisfied.

> <CHARMm Energy>
98.44634

> <Potential Energy>
98.44634

> <RMS Gradient>
0.02639

> <Bond Energy>
5.3726

> <Angle Energy>
7.65839

> <STRBend>
1.32238

> <Dihedral Energy>
2.25684

> <OOPLane>
0.04281

> <Van der Waals Energy>
48.78949

> <Electrostatic Energy>
33.00382

> <Hydrogen Bond Energy>
0

> <Solvation Free Energy>
0

> <HasGasteigerCharges>
true

> <REMARK99>
REMARK  99  MacroMolecule created from Mol2 file
REMARK  99  CHEMBL491627
REMARK  99  PROTEIN
REMARK  99  GASTEIGER
REMARK  99
REMARK  99

$$$$
CHEMBL3335625
  SciTegic05292516403D

 46 49  0  0  0  0            999 V2000
    2.8177   -3.7392   -0.4556 C   0  0
    2.7431   -5.0788   -0.8258 C   0  0
    3.8559   -5.9183   -0.6827 C   0  0
    5.0654   -5.4335   -0.1699 C   0  0
    5.1311   -4.0649    0.1725 C   0  0
    4.0105   -3.2297    0.0477 C   0  0
    6.3828   -3.4240    0.6492 C   0  0
    7.4585   -3.6005   -0.2030 N   0  0
    6.3615   -2.7980    1.6995 O   0  0
    8.7841   -3.1579   -0.0128 C   0  0
    6.1968   -6.2673    0.0481 N   0  0
    6.3356   -7.6060   -0.2788 C   0  0
    7.6373   -8.2334    0.1015 C   0  0
    5.4984   -8.3102   -0.8300 O   0  0
    7.6458   -9.6187    0.3931 C   0  0
    8.8314  -10.2719    0.7471 C   0  0
    9.9832   -9.5180    0.7925 C   0  0
    9.9830   -8.1747    0.4981 C   0  0
    8.8328   -7.5008    0.1432 C   0  0
    9.6905   -3.3935   -1.0516 C   0  0
   11.0296   -2.9915   -0.9366 C   0  0
   11.4817   -2.3758    0.2329 C   0  0
   10.5801   -2.1371    1.2691 C   0  0
    9.2390   -2.5222    1.1446 C   0  0
   11.9383   -3.2934   -2.0647 C   0  0
   11.8096   -4.2907   -2.7539 O   0  0
   12.8728   -2.3501   -2.2867 O   0  0
   11.2213   -9.9775    1.1102 O   0  0
   12.0107   -8.7797    0.9530 C   0  0
   11.2228   -7.6231    0.5933 O   0  0
    1.9487   -3.0945   -0.5619 H   0  0
    1.8100   -5.4827   -1.2178 H   0  0
    3.7280   -6.9594   -0.9653 H   0  0
    4.0720   -2.1816    0.3346 H   0  0
    7.2607   -4.0611   -1.0868 H   0  0
    6.9635   -5.8383    0.5545 H   0  0
    6.7192  -10.1903    0.3410 H   0  0
    8.8472  -11.3339    0.9709 H   0  0
    8.8934   -6.4522   -0.1173 H   0  0
    9.3706   -3.8934   -1.9645 H   0  0
   12.5278   -2.1100    0.3666 H   0  0
   10.9182   -1.6622    2.1884 H   0  0
    8.5756   -2.3217    1.9817 H   0  0
   12.7812   -1.5101   -1.7966 H   0  0
   12.5251   -8.5721    1.8981 H   0  0
   12.7605   -8.9512    0.1720 H   0  0
  1  2  2  0
  1 31  1  0
  2  3  1  0
  2 32  1  0
  3  4  2  0
  3 33  1  0
  4  5  1  0
  4 11  1  0
  5  6  2  0
  5  7  1  0
  6  1  1  0
  6 34  1  0
  7  8  1  0
  7  9  2  0
  8 10  1  0
  8 35  1  0
 10 20  2  0
 11 12  1  0
 11 36  1  0
 12 13  1  0
 12 14  2  0
 13 15  2  0
 15 16  1  0
 15 37  1  0
 16 17  2  0
 16 38  1  0
 17 28  1  0
 18 17  1  0
 18 19  2  0
 18 30  1  0
 19 13  1  0
 19 39  1  0
 20 21  1  0
 20 40  1  0
 21 22  2  0
 21 25  1  0
 22 23  1  0
 22 41  1  0
 23 24  2  0
 23 42  1  0
 24 10  1  0
 24 43  1  0
 25 26  2  0
 25 27  1  0
 27 44  1  0
 28 29  1  0
 29 30  1  0
 29 45  1  0
 29 46  1  0
M  END
> <Name>
CHEMBL3335625

> <Clean Energy>
14.61

> <chembl_id>
CHEMBL3335625

> <chembl_pref_name>
None

> <efficacy>
2.098765432

> <Forcefield>
MMFF

> <ForcefieldBase>
MMFF

> <ForcefieldFFML>
<?xml version="1.0" encoding="UTF-8"?>
<!DOCTYPE ffml SYSTEM "Ffml.dtd">
<ffml version="1.0">
<forcefield name="MMFF" derivedFrom="MMFF" base="MMFF">
<atomTypes>
<atomType
name="C100"
element="C"
mass="12.011"
annotation=""/>
<atomType
name="N101"
element="N"
mass="14.007"
annotation=""/>
<atomType
name="O102"
element="O"
mass="16"
annotation=""/>
<atomType
name="H103"
element="H"
mass="1.008"
annotation=""/>
</atomTypes>
<parameters>
</parameters>
</forcefield>
</ffml>

> <Initial Potential Energy>
236.88364

> <Initial RMS Gradient>
91.03486

> <Minimization Criteria>
CONJUG> Minimization exiting with gradient tolerance ( 0.0100000) satisfied.

> <CHARMm Energy>
52.64587

> <Potential Energy>
52.64587

> <RMS Gradient>
0.0087

> <Bond Energy>
6.44661

> <Angle Energy>
16.81747

> <STRBend>
1.5667

> <Dihedral Energy>
13.71695

> <OOPLane>
0.10321

> <Van der Waals Energy>
61.45771

> <Electrostatic Energy>
-47.46277

> <Hydrogen Bond Energy>
0

> <Solvation Free Energy>
0

> <HasGasteigerCharges>
true

> <REMARK99>
REMARK  99  MacroMolecule created from Mol2 file
REMARK  99  CHEMBL3335625
REMARK  99  PROTEIN
REMARK  99  GASTEIGER
REMARK  99
REMARK  99

$$$$
CHEMBL1813004
  SciTegic05292516403D

 48 50  0  0  0  0            999 V2000
    1.7988   -3.6471   -1.5490 C   0  0
    0.9212   -4.3813   -0.7509 C   0  0
    1.3427   -4.8412    0.4950 C   0  0
    2.6245   -4.5273    0.9572 C   0  0
    3.5032   -3.7671    0.1718 C   0  0
    3.0808   -3.3335   -1.0905 C   0  0
    4.9020   -3.4625    0.6595 C   0  0
    5.9167   -4.5070    0.1883 C   0  0  1  0  0  0
    7.3232   -4.0213    0.5298 C   0  0
    5.7144   -5.7462    0.9090 O   0  0
    5.3798   -6.8260    0.0328 C   0  0
    5.1163   -8.0567    0.8766 C   0  0
    7.8745   -3.0477    0.0361 O   0  0
    7.9326   -4.8041    1.4634 O   0  0
   -0.2941   -4.6680   -1.3052 O   0  0
   -1.4235   -4.5916   -0.4227 C   0  0
   -2.2065   -5.8605   -0.3691 C   0  0
   -3.4858   -5.8723    0.1563 N   0  0
   -3.9115   -7.1187    0.0165 C   0  0
   -2.9521   -7.9443   -0.5294 O   0  0
   -1.8826   -7.1351   -0.7806 C   0  0
   -0.7023   -7.7609   -1.4029 C   0  0
   -5.2522   -7.5905    0.4350 C   0  0
   -6.2908   -6.7706    0.9645 C   0  0
   -7.4223   -7.5002    1.2623 C   0  0
   -7.2280   -9.1634    0.9056 S   0  0
   -5.6274   -8.9139    0.3501 C   0  0
    1.4806   -3.3113   -2.5330 H   0  0
    0.7021   -5.4625    1.1138 H   0  0
    2.9401   -4.8975    1.9310 H   0  0
    3.7433   -2.7503   -1.7269 H   0  0
    5.1857   -2.4609    0.3115 H   0  0
    4.8927   -3.4098    1.7563 H   0  0
    5.8799   -4.6703   -0.8961 H   0  0
    4.4869   -6.5765   -0.5499 H   0  0
    6.2164   -7.0124   -0.6494 H   0  0
    4.8639   -8.9148    0.2475 H   0  0
    4.2921   -7.8754    1.5744 H   0  0
    5.9955   -8.3062    1.4798 H   0  0
    7.2707   -5.4982    1.7091 H   0  0
   -1.1663   -4.2688    0.5930 H   0  0
   -2.0748   -3.8093   -0.8317 H   0  0
    0.1751   -7.6514   -0.7587 H   0  0
   -0.4846   -7.2964   -2.3693 H   0  0
   -0.8627   -8.8303   -1.5728 H   0  0
   -6.2173   -5.7007    1.1184 H   0  0
   -8.3544   -7.1372    1.6729 H   0  0
   -5.0399   -9.7489   -0.0078 H   0  0
  1  2  2  0
  1 28  1  0
  2  3  1  0
  2 15  1  0
  3  4  2  0
  3 29  1  0
  4  5  1  0
  4 30  1  0
  5  6  2  0
  5  7  1  0
  6  1  1  0
  6 31  1  0
  7  8  1  0
  7 32  1  0
  7 33  1  0
  8  9  1  0
  8 10  1  0
  8 34  1  0
  9 13  2  0
  9 14  1  0
 10 11  1  0
 11 12  1  0
 11 35  1  0
 11 36  1  0
 12 37  1  0
 12 38  1  0
 12 39  1  0
 14 40  1  0
 15 16  1  0
 16 17  1  0
 16 41  1  0
 16 42  1  0
 17 18  1  0
 18 19  2  0
 19 20  1  0
 19 23  1  0
 20 21  1  0
 21 17  2  0
 21 22  1  0
 22 43  1  0
 22 44  1  0
 22 45  1  0
 23 24  1  0
 24 25  2  0
 24 46  1  0
 25 26  1  0
 25 47  1  0
 26 27  1  0
 27 23  2  0
 27 48  1  0
M  END
> <Name>
CHEMBL1813004

> <Clean Energy>
54.150501

> <chembl_id>
CHEMBL1813004

> <chembl_pref_name>
None

> <efficacy>
0.99

> <Forcefield>
MMFF

> <ForcefieldBase>
MMFF

> <ForcefieldFFML>
<?xml version="1.0" encoding="UTF-8"?>
<!DOCTYPE ffml SYSTEM "Ffml.dtd">
<ffml version="1.0">
<forcefield name="MMFF" derivedFrom="MMFF" base="MMFF">
<atomTypes>
<atomType
name="C100"
element="C"
mass="12.011"
annotation=""/>
<atomType
name="O101"
element="O"
mass="16"
annotation=""/>
<atomType
name="N102"
element="N"
mass="14.007"
annotation=""/>
<atomType
name="S103"
element="S"
mass="32.066"
annotation=""/>
<atomType
name="H104"
element="H"
mass="1.008"
annotation=""/>
</atomTypes>
<parameters>
</parameters>
</forcefield>
</ffml>

> <Initial Potential Energy>
142.82991

> <Initial RMS Gradient>
23.82284

> <Minimization Criteria>
CONJUG> Minimization exiting with gradient tolerance ( 0.0100000) satisfied.

> <CHARMm Energy>
59.54447

> <Potential Energy>
59.54447

> <RMS Gradient>
0.00996

> <Bond Energy>
3.28551

> <Angle Energy>
11.91841

> <STRBend>
0.28924

> <Dihedral Energy>
4.65652

> <OOPLane>
0.05987

> <Van der Waals Energy>
30.91487

> <Electrostatic Energy>
8.42005

> <Hydrogen Bond Energy>
0

> <Solvation Free Energy>
0

> <HasGasteigerCharges>
true

> <REMARK99>
REMARK  99  MacroMolecule created from Mol2 file
REMARK  99  CHEMBL1813004
REMARK  99  PROTEIN
REMARK  99  GASTEIGER
REMARK  99
REMARK  99

$$$$
CHEMBL3398456
  SciTegic05292516403D

 72 76  0  0  0  0            999 V2000
    8.3313   -1.9784    0.4021 C   0  0
    9.6924   -2.2375    0.5604 C   0  0
    1.2343    0.0982   -0.1770 C   0  0
    1.6825    1.4284   -0.2072 C   0  0
    7.3977   -2.9516    0.7694 C   0  0
   -0.1301   -0.1921   -0.0910 C   0  0
    3.1138    1.7051   -0.3023 C   0  0
    5.2384    1.6805   -0.4471 C   0  0
    7.8187   -4.1800    1.3073 C   0  0
   10.1235   -3.4389    1.1136 C   0  0
    6.6801   -0.3361   -0.0760 C   0  0
    9.1904   -4.3998    1.4964 C   0  0
    6.6092    1.1183   -0.5322 C   0  0
    6.7933   -5.2175    1.7091 C   0  0
    4.1291    0.8610   -0.3659 N   0  0
   -0.6332    2.1690   -0.0600 C   0  0
    0.7306    2.4604   -0.1463 C   0  0
    5.5261    4.3057   -0.5009 C   0  0
    4.8417    3.0018   -0.4367 C   0  0
    8.0461   -0.7487   -0.1260 O   0  0
   -1.0623    0.8435   -0.0336 C   0  0
    3.4817    3.0262   -0.3368 O   0  0
    7.0985   -6.6568    1.2566 C   0  0
    7.0729   -6.8346   -0.2863 C   0  0  2  0  0  0
    5.6424   -7.1666   -0.7445 C   0  0
    5.5686   -8.6151   -0.6067 N   0  0
    6.8813   -9.2124   -0.4671 C   0  0
    7.8317   -8.0805   -0.8160 C   0  0  2  0  0  0
    4.3795   -9.3050   -0.5518 C   0  0
    3.2943   -8.7511   -0.6863 O   0  0
    4.5820  -10.6613   -0.3115 O   0  0
    9.2358   -8.2657   -0.3047 C   0  0
    9.8869   -7.3894    0.2406 O   0  0
    9.7691   -9.4819   -0.5589 O   0  0
    3.4819  -11.4813   -0.0094 C   0  0
    3.5117  -12.7727   -0.5346 C   0  0
    2.4922  -13.6667   -0.2144 C   0  0
    1.4585  -13.2690    0.6356 C   0  0
    1.4447  -11.9777    1.1690 C   0  0
    2.4627  -11.0791    0.8532 C   0  0
   10.4200   -1.4909    0.2591 H   0  0
    1.9519   -0.7202   -0.2223 H   0  0
    6.3334   -2.7818    0.6388 H   0  0
   -0.4672   -1.2254   -0.0699 H   0  0
   11.1850   -3.6269    1.2450 H   0  0
    6.0806   -0.9652   -0.7458 H   0  0
    6.2974   -0.4171    0.9498 H   0  0
    9.5502   -5.3310    1.9286 H   0  0
    6.9742    1.1956   -1.5638 H   0  0
    7.2968    1.7197    0.0758 H   0  0
    6.7183   -5.1996    2.8038 H   0  0
    5.8046   -4.9329    1.3288 H   0  0
   -1.3579    2.9772   -0.0137 H   0  0
    1.0450    3.5022   -0.1649 H   0  0
    5.0455    4.9578   -1.2366 H   0  0
    6.5750    4.1867   -0.7888 H   0  0
    5.4928    4.8012    0.4740 H   0  0
   -2.1229    0.6151    0.0318 H   0  0
    8.0531   -6.9692    1.6843 H   0  0
    6.3534   -7.3160    1.7214 H   0  0
    7.4446   -5.9313   -0.7811 H   0  0
    4.8533   -6.6732   -0.1693 H   0  0
    5.5024   -6.9314   -1.8057 H   0  0
    7.0004   -9.5696    0.5622 H   0  0
    6.9757  -10.0684   -1.1433 H   0  0
    7.9070   -7.9903   -1.9093 H   0  0
    9.2415  -10.1071   -1.0904 H   0  0
    4.3255  -13.0800   -1.1840 H   0  0
    2.5083  -14.6737   -0.6213 H   0  0
    0.6671  -13.9685    0.8889 H   0  0
    0.6458  -11.6730    1.8385 H   0  0
    2.4494  -10.0778    1.2793 H   0  0
  1  5  2  0
  2  1  1  0
  2 41  1  0
  3  6  1  0
  3 42  1  0
  4  3  2  0
  5  9  1  0
  5 43  1  0
  6 21  2  0
  6 44  1  0
  7  4  1  0
  7 15  2  0
  8 13  1  0
  8 19  2  0
  9 12  2  0
 10  2  2  0
 10 45  1  0
 11 20  1  0
 11 46  1  0
 11 47  1  0
 12 10  1  0
 12 48  1  0
 13 11  1  0
 13 49  1  0
 13 50  1  0
 14  9  1  0
 14 23  1  0
 14 51  1  0
 14 52  1  0
 15  8  1  0
 16 17  2  0
 16 53  1  0
 17  4  1  0
 17 54  1  0
 18 55  1  0
 18 56  1  0
 18 57  1  0
 19 18  1  0
 19 22  1  0
 20  1  1  0
 21 16  1  0
 21 58  1  0
 22  7  1  0
 23 59  1  0
 23 60  1  0
 24 23  1  0
 24 25  1  0
 24 61  1  0
 25 26  1  0
 25 62  1  0
 25 63  1  0
 26 27  1  0
 26 29  1  0
 27 28  1  0
 27 64  1  0
 27 65  1  0
 28 24  1  0
 28 32  1  0
 28 66  1  0
 29 30  2  0
 29 31  1  0
 31 35  1  0
 32 33  2  0
 32 34  1  0
 34 67  1  0
 35 36  2  0
 36 37  1  0
 36 68  1  0
 37 38  2  0
 37 69  1  0
 38 39  1  0
 38 70  1  0
 39 40  2  0
 39 71  1  0
 40 35  1  0
 40 72  1  0
M  END
> <Name>
CHEMBL3398456

> <Clean Energy>
60.82

> <chembl_id>
CHEMBL3398456

> <chembl_pref_name>
None

> <efficacy>
1.26

> <Forcefield>
MMFF

> <ForcefieldBase>
MMFF

> <ForcefieldFFML>
<?xml version="1.0" encoding="UTF-8"?>
<!DOCTYPE ffml SYSTEM "Ffml.dtd">
<ffml version="1.0">
<forcefield name="MMFF" derivedFrom="MMFF" base="MMFF">
<atomTypes>
<atomType
name="C100"
element="C"
mass="12.011"
annotation=""/>
<atomType
name="N101"
element="N"
mass="14.007"
annotation=""/>
<atomType
name="O102"
element="O"
mass="16"
annotation=""/>
<atomType
name="H103"
element="H"
mass="1.008"
annotation=""/>
</atomTypes>
<parameters>
</parameters>
</forcefield>
</ffml>

> <Initial Potential Energy>
136.03916

> <Initial RMS Gradient>
27.74872

> <Minimization Criteria>
CONJUG> Minimization exiting with gradient tolerance ( 0.0100000) satisfied.

> <CHARMm Energy>
37.95196

> <Potential Energy>
37.95196

> <RMS Gradient>
0.00981

> <Bond Energy>
7.5979

> <Angle Energy>
27.7084

> <STRBend>
-0.84564

> <Dihedral Energy>
-0.69221

> <OOPLane>
0.16373

> <Van der Waals Energy>
70.15924

> <Electrostatic Energy>
-66.13947

> <Hydrogen Bond Energy>
0

> <Solvation Free Energy>
0

> <HasGasteigerCharges>
true

> <REMARK99>
REMARK  99  MacroMolecule created from Mol2 file
REMARK  99  CHEMBL3398456
REMARK  99  PROTEIN
REMARK  99  GASTEIGER
REMARK  99
REMARK  99

$$$$
CHEMBL3335623
  SciTegic05292516403D

 46 48  0  0  0  0            999 V2000
    2.8718   -3.8949    0.1017 C   0  0
    2.9256   -5.2268    0.4826 C   0  0
    4.1400   -5.9264    0.4222 C   0  0
    5.3342   -5.3186   -0.0126 C   0  0
    5.2666   -3.9550   -0.3774 C   0  0
    4.0352   -3.2595   -0.3245 C   0  0
    6.4366   -3.1077   -0.7472 C   0  0
    7.5636   -3.2931    0.0372 N   0  0
    6.2846   -2.2622   -1.6245 O   0  0
    8.7557   -2.5310    0.0016 C   0  0
    6.5303   -6.1022   -0.1510 N   0  0
    6.7594   -7.3009    0.5268 C   0  0
    7.8409   -8.2254    0.0446 C   0  0
    6.1403   -7.6410    1.5333 O   0  0
    8.3131   -9.1999    0.9436 C   0  0
    9.2182  -10.1936    0.5404 C   0  0
    9.6710  -10.2534   -0.7838 C   0  0
    9.2207   -9.2611   -1.6777 C   0  0
    8.3109   -8.2582   -1.2723 C   0  0
   10.6287  -11.3546   -1.2198 C   0  0
   10.3640  -11.8496   -2.4672 F   0  0
   11.9258  -10.9333   -1.2569 F   0  0
   10.6229  -12.4539   -0.4029 F   0  0
    9.6977   -2.7609    1.0123 C   0  0
   10.8738   -1.9995    1.0687 C   0  0
   11.1164   -0.9905    0.1298 C   0  0
   10.1911   -0.7718   -0.8870 C   0  0
    9.0223   -1.5406   -0.9525 C   0  0
   11.8005   -2.1938    2.2050 C   0  0
   11.4190   -2.3196    3.3548 O   0  0
   13.0978   -2.1442    1.8348 O   0  0
    1.9320   -3.3474    0.1449 H   0  0
    2.0260   -5.7399    0.8177 H   0  0
    4.1104   -6.9792    0.6949 H   0  0
    3.9812   -2.2028   -0.5983 H   0  0
    7.4784   -3.9578    0.8007 H   0  0
    7.2575   -5.7372   -0.7553 H   0  0
    7.9500   -9.2125    1.9719 H   0  0
    9.5435  -10.9418    1.2655 H   0  0
    9.5564   -9.2812   -2.7153 H   0  0
    7.9470   -7.5538   -2.0156 H   0  0
    9.5132   -3.5004    1.7892 H   0  0
   11.9836   -0.3333    0.2130 H   0  0
   10.3539    0.0284   -1.6097 H   0  0
    8.3252   -1.3249   -1.7572 H   0  0
   13.2227   -2.3748    0.8919 H   0  0
  1  2  2  0
  1 32  1  0
  2  3  1  0
  2 33  1  0
  3  4  2  0
  3 34  1  0
  4  5  1  0
  4 11  1  0
  5  6  2  0
  5  7  1  0
  6  1  1  0
  6 35  1  0
  7  8  1  0
  7  9  2  0
  8 10  1  0
  8 36  1  0
 10 24  2  0
 11 12  1  0
 11 37  1  0
 12 13  1  0
 12 14  2  0
 13 15  2  0
 15 16  1  0
 15 38  1  0
 16 17  2  0
 16 39  1  0
 17 18  1  0
 17 20  1  0
 18 19  2  0
 18 40  1  0
 19 13  1  0
 19 41  1  0
 20 21  1  0
 20 22  1  0
 20 23  1  0
 24 25  1  0
 24 42  1  0
 25 26  2  0
 25 29  1  0
 26 27  1  0
 26 43  1  0
 27 28  2  0
 27 44  1  0
 28 10  1  0
 28 45  1  0
 29 30  2  0
 29 31  1  0
 31 46  1  0
M  END
> <Name>
CHEMBL3335623

> <Clean Energy>
11.9863

> <chembl_id>
CHEMBL3335623

> <chembl_pref_name>
None

> <efficacy>
3.646723647

> <Forcefield>
MMFF

> <ForcefieldBase>
MMFF

> <ForcefieldFFML>
<?xml version="1.0" encoding="UTF-8"?>
<!DOCTYPE ffml SYSTEM "Ffml.dtd">
<ffml version="1.0">
<forcefield name="MMFF" derivedFrom="MMFF" base="MMFF">
<atomTypes>
<atomType
name="C100"
element="C"
mass="12.011"
annotation=""/>
<atomType
name="N101"
element="N"
mass="14.007"
annotation=""/>
<atomType
name="O102"
element="O"
mass="16"
annotation=""/>
<atomType
name="F103"
element="F"
mass="18.998"
annotation=""/>
<atomType
name="H104"
element="H"
mass="1.008"
annotation=""/>
</atomTypes>
<parameters>
</parameters>
</forcefield>
</ffml>

> <Initial Potential Energy>
262.9193

> <Initial RMS Gradient>
89.99907

> <Minimization Criteria>
CONJUG> Minimization exiting with gradient tolerance ( 0.0100000) satisfied.

> <CHARMm Energy>
78.96103

> <Potential Energy>
78.96103

> <RMS Gradient>
0.00993

> <Bond Energy>
9.03171

> <Angle Energy>
12.87712

> <STRBend>
2.03177

> <Dihedral Energy>
17.98742

> <OOPLane>
0.53717

> <Van der Waals Energy>
61.26076

> <Electrostatic Energy>
-24.76491

> <Hydrogen Bond Energy>
0

> <Solvation Free Energy>
0

> <HasGasteigerCharges>
true

> <REMARK99>
REMARK  99  MacroMolecule created from Mol2 file
REMARK  99  CHEMBL3335623
REMARK  99  PROTEIN
REMARK  99  GASTEIGER
REMARK  99
REMARK  99

$$$$
CHEMBL3597431
  SciTegic05292516403D

 70 74  0  0  0  0            999 V2000
   -1.4381    1.0722   -0.2989 C   0  0
   -1.5022   -0.3096   -0.4497 C   0  0
   -0.3788   -1.0462   -0.8185 C   0  0
   -0.2310    1.7537   -0.5111 C   0  0
    0.9259    1.0319   -0.8813 C   0  0
    0.8271   -0.3567   -1.0189 C   0  0
    2.0861   -0.8169   -1.3380 N   0  0
    2.9484    0.2386   -1.4846 C   0  0
    2.2821    1.4052   -1.1643 C   0  0
    2.8864    2.7782   -1.1305 C   0  0
    4.1584    2.8041   -0.3040 C   0  0
    3.9579    2.5687    1.0177 O   0  0
    5.2831    2.9575   -0.7663 O   0  0
   -2.6243    1.6502    0.0695 O   0  0
   -2.6850    3.0647   -0.0436 C   0  0
   -4.1071    3.5210    0.2449 C   0  0
   -4.1943    5.0227    0.0422 C   0  0
   -5.4836    5.4923    0.4472 O   0  0
   -5.4761    6.8284    0.7704 C   0  0
   -6.2930    7.2126    1.8298 C   0  0
   -6.2912    8.5399    2.2600 C   0  0
   -5.4696    9.4810    1.6358 C   0  0
   -4.6499    9.1026    0.5756 C   0  0
   -4.6983    7.7871    0.1099 C   0  0
   -3.8403   10.0849    0.0643 O   0  0
   -2.6338    9.6050   -0.5460 C   0  0
   -1.5624   10.6719   -0.5104 C   0  0
   -0.2507   10.3010   -0.1668 C   0  0
    0.7871   11.2291   -0.1916 C   0  0
    0.5199   12.5389   -0.5640 C   0  0
   -0.7763   12.9338   -0.8988 C   0  0
   -1.8189   12.0009   -0.8760 C   0  0
    2.4699   -2.2148   -1.4764 C   0  0
    4.4161   -2.7657    0.0434 C   0  0
    3.0283   -2.7482   -0.1781 C   0  0
    2.1712   -3.1963    0.8414 C   0  0
    2.6918   -3.6538    2.0520 C   0  0
    4.0668   -3.6607    2.2482 C   0  0
    4.9346   -3.2254    1.2551 C   0  0
    1.8043   13.6781   -0.6110 Cl  0  0
    4.5608   -4.0902    3.4158 F   0  0
   -2.4486   -0.8186   -0.2817 H   0  0
   -0.4532   -2.1226   -0.9369 H   0  0
   -0.1553    2.8272   -0.3956 H   0  0
    3.9828    0.0705   -1.7613 H   0  0
    3.1322    3.0962   -2.1502 H   0  0
    2.1950    3.5226   -0.7221 H   0  0
    3.0069    2.4729    1.2338 H   0  0
   -2.0066    3.5250    0.6856 H   0  0
   -2.4049    3.3740   -1.0589 H   0  0
   -4.8227    3.0033   -0.4050 H   0  0
   -4.3957    3.2479    1.2676 H   0  0
   -3.4025    5.5015    0.6345 H   0  0
   -4.0450    5.2542   -1.0192 H   0  0
   -6.9184    6.4773    2.3291 H   0  0
   -6.9237    8.8413    3.0904 H   0  0
   -5.4672   10.5104    1.9872 H   0  0
   -4.1201    7.5024   -0.7607 H   0  0
   -2.2584    8.7189   -0.0172 H   0  0
   -2.8362    9.3465   -1.5920 H   0  0
   -0.0222    9.2768    0.1184 H   0  0
    1.7938   10.9151    0.0701 H   0  0
   -0.9804   13.9655   -1.1816 H   0  0
   -2.8279   12.3137   -1.1458 H   0  0
    1.6015   -2.7975   -1.8010 H   0  0
    3.2108   -2.2784   -2.2824 H   0  0
    5.1041   -2.4126   -0.7224 H   0  0
    1.0920   -3.1773    0.7075 H   0  0
    2.0388   -4.0025    2.8458 H   0  0
    6.0059   -3.2406    1.4337 H   0  0
  1  2  2  0
  1 14  1  0
  2  3  1  0
  2 42  1  0
  3  6  2  0
  3 43  1  0
  4  1  1  0
  4 44  1  0
  5  4  2  0
  5  6  1  0
  6  7  1  0
  7  8  1  0
  7 33  1  0
  8  9  2  0
  8 45  1  0
  9  5  1  0
  9 10  1  0
 10 11  1  0
 10 46  1  0
 10 47  1  0
 11 12  1  0
 11 13  2  0
 12 48  1  0
 14 15  1  0
 15 16  1  0
 15 49  1  0
 15 50  1  0
 16 17  1  0
 16 51  1  0
 16 52  1  0
 17 18  1  0
 17 53  1  0
 17 54  1  0
 18 19  1  0
 19 20  2  0
 20 21  1  0
 20 55  1  0
 21 22  2  0
 21 56  1  0
 22 23  1  0
 22 57  1  0
 23 24  2  0
 23 25  1  0
 24 19  1  0
 24 58  1  0
 25 26  1  0
 26 27  1  0
 26 59  1  0
 26 60  1  0
 27 28  2  0
 28 29  1  0
 28 61  1  0
 29 30  2  0
 29 62  1  0
 30 31  1  0
 30 40  1  0
 31 32  2  0
 31 63  1  0
 32 27  1  0
 32 64  1  0
 33 65  1  0
 33 66  1  0
 34 35  2  0
 34 67  1  0
 35 33  1  0
 35 36  1  0
 36 37  2  0
 36 68  1  0
 37 38  1  0
 37 69  1  0
 38 39  2  0
 38 41  1  0
 39 34  1  0
 39 70  1  0
M  END
> <Name>
CHEMBL3597431

> <Clean Energy>
28.7055

> <chembl_id>
CHEMBL3597431

> <chembl_pref_name>
None

> <efficacy>
0.927

> <Forcefield>
MMFF

> <ForcefieldBase>
MMFF

> <ForcefieldFFML>
<?xml version="1.0" encoding="UTF-8"?>
<!DOCTYPE ffml SYSTEM "Ffml.dtd">
<ffml version="1.0">
<forcefield name="MMFF" derivedFrom="MMFF" base="MMFF">
<atomTypes>
<atomType
name="C100"
element="C"
mass="12.011"
annotation=""/>
<atomType
name="N101"
element="N"
mass="14.007"
annotation=""/>
<atomType
name="O102"
element="O"
mass="16"
annotation=""/>
<atomType
name="Cl103"
element="Cl"
mass="35.453"
annotation=""/>
<atomType
name="F104"
element="F"
mass="18.998"
annotation=""/>
<atomType
name="H105"
element="H"
mass="1.008"
annotation=""/>
</atomTypes>
<parameters>
</parameters>
</forcefield>
</ffml>

> <Initial Potential Energy>
241.55849

> <Initial RMS Gradient>
34.7013

> <Minimization Criteria>
STEEPD> Minimization exiting with gradient tolerance ( 3.0000000) satisfied.

> <CHARMm Energy>
90.12565

> <Potential Energy>
90.12565

> <RMS Gradient>
0.15066

> <Bond Energy>
6.93391

> <Angle Energy>
17.04875

> <STRBend>
-0.03099

> <Dihedral Energy>
3.98295

> <OOPLane>
0.1242

> <Van der Waals Energy>
82.39645

> <Electrostatic Energy>
-20.32962

> <Hydrogen Bond Energy>
0

> <Solvation Free Energy>
0

> <HasGasteigerCharges>
true

> <REMARK99>
REMARK  99  MacroMolecule created from Mol2 file
REMARK  99  CHEMBL3597431
REMARK  99  PROTEIN
REMARK  99  GASTEIGER
REMARK  99
REMARK  99

$$$$
CHEMBL3597401
  SciTegic05292516403D

 57 60  0  0  0  0            999 V2000
   -2.2127    1.1610   -0.0333 C   0  0
   -2.3824   -0.2013    0.2209 C   0  0
   -1.2907   -1.0595    0.3721 C   0  0
   -0.9213    1.6998   -0.1382 C   0  0
    0.2055    0.8558    0.0162 C   0  0
   -0.0139   -0.5006    0.2628 C   0  0
    1.2166   -1.1027    0.3537 N   0  0
    2.2071   -0.1770    0.1728 C   0  0
    1.6292    1.0629   -0.0321 C   0  0
    2.3346    2.3648   -0.2952 C   0  0
    3.8011    2.3344    0.0932 C   0  0
    4.0209    2.3469    1.4350 O   0  0
    4.7289    2.2266   -0.7000 O   0  0
   -3.3878    1.8579   -0.1577 O   0  0
   -3.2892    3.2518   -0.4306 C   0  0
   -4.6931    3.8549   -0.4460 C   0  0
   -4.6117    5.3542   -0.6980 C   0  0
   -5.9052    5.9588   -0.5559 O   0  0
   -5.8371    7.2840   -0.1923 C   0  0
   -6.8681    7.7550    0.6161 C   0  0
   -6.8330    9.0660    1.0949 C   0  0
   -5.7580    9.8996    0.7782 C   0  0
   -4.7269    9.4376   -0.0367 C   0  0
   -4.8012    8.1486   -0.5672 C   0  0
   -3.6921   10.3132   -0.2441 O   0  0
   -2.4383    9.7083   -0.5886 C   0  0
   -1.2685   10.6194   -0.2749 C   0  0
    0.0225   10.0653   -0.3450 C   0  0
    1.1482   10.8180   -0.0209 C   0  0
    0.9914   12.1423    0.3622 C   0  0
   -0.2753   12.7285    0.4018 C   0  0
   -1.4064   11.9682    0.0818 C   0  0
    2.3759   13.0665    0.7886 Cl  0  0
   -3.3908   -0.6017    0.2999 H   0  0
   -1.4374   -2.1184    0.5629 H   0  0
   -0.7546    2.7496   -0.3425 H   0  0
    1.3585   -2.0910    0.5142 H   0  0
    3.2451   -0.4864    0.1955 H   0  0
    2.2726    2.6039   -1.3633 H   0  0
    1.8514    3.1890    0.2418 H   0  0
    3.1879    2.5040    1.9274 H   0  0
   -2.7003    3.7437    0.3535 H   0  0
   -2.8120    3.4071   -1.4059 H   0  0
   -5.3144    3.3700   -1.2087 H   0  0
   -5.2003    3.6550    0.5061 H   0  0
   -3.9010    5.7775    0.0249 H   0  0
   -4.2447    5.5364   -1.7153 H   0  0
   -7.6908    7.0988    0.8888 H   0  0
   -7.6305    9.4324    1.7349 H   0  0
   -5.7213   10.9093    1.1793 H   0  0
   -4.0396    7.8055   -1.2574 H   0  0
   -2.2908    8.7842   -0.0137 H   0  0
   -2.4330    9.4927   -1.6636 H   0  0
    0.1571    9.0282   -0.6411 H   0  0
    2.1324   10.3589   -0.0612 H   0  0
   -0.3896   13.7743    0.6856 H   0  0
   -2.3903   12.4360    0.1249 H   0  0
  1  2  2  0
  1 14  1  0
  2  3  1  0
  2 34  1  0
  3  6  2  0
  3 35  1  0
  4  1  1  0
  4 36  1  0
  5  4  2  0
  5  6  1  0
  6  7  1  0
  7  8  1  0
  7 37  1  0
  8  9  2  0
  8 38  1  0
  9  5  1  0
  9 10  1  0
 10 11  1  0
 10 39  1  0
 10 40  1  0
 11 12  1  0
 11 13  2  0
 12 41  1  0
 14 15  1  0
 15 16  1  0
 15 42  1  0
 15 43  1  0
 16 17  1  0
 16 44  1  0
 16 45  1  0
 17 18  1  0
 17 46  1  0
 17 47  1  0
 18 19  1  0
 19 20  2  0
 20 21  1  0
 20 48  1  0
 21 22  2  0
 21 49  1  0
 22 23  1  0
 22 50  1  0
 23 24  2  0
 23 25  1  0
 24 19  1  0
 24 51  1  0
 25 26  1  0
 26 27  1  0
 26 52  1  0
 26 53  1  0
 27 28  2  0
 28 29  1  0
 28 54  1  0
 29 30  2  0
 29 55  1  0
 30 31  1  0
 30 33  1  0
 31 32  2  0
 31 56  1  0
 32 27  1  0
 32 57  1  0
M  END
> <Name>
CHEMBL3597401

> <Clean Energy>
21.374001

> <chembl_id>
CHEMBL3597401

> <chembl_pref_name>
None

> <efficacy>
1.045

> <Forcefield>
MMFF

> <ForcefieldBase>
MMFF

> <ForcefieldFFML>
<?xml version="1.0" encoding="UTF-8"?>
<!DOCTYPE ffml SYSTEM "Ffml.dtd">
<ffml version="1.0">
<forcefield name="MMFF" derivedFrom="MMFF" base="MMFF">
<atomTypes>
<atomType
name="C100"
element="C"
mass="12.011"
annotation=""/>
<atomType
name="N101"
element="N"
mass="14.007"
annotation=""/>
<atomType
name="O102"
element="O"
mass="16"
annotation=""/>
<atomType
name="Cl103"
element="Cl"
mass="35.453"
annotation=""/>
<atomType
name="H104"
element="H"
mass="1.008"
annotation=""/>
</atomTypes>
<parameters>
</parameters>
</forcefield>
</ffml>

> <Initial Potential Energy>
137.77001

> <Initial RMS Gradient>
29.57589

> <Minimization Criteria>
CONJUG> Minimization exiting with gradient tolerance ( 0.0100000) satisfied.

> <CHARMm Energy>
55.01086

> <Potential Energy>
55.01086

> <RMS Gradient>
0.0092

> <Bond Energy>
5.77444

> <Angle Energy>
18.72137

> <STRBend>
-0.19113

> <Dihedral Energy>
2.03322

> <OOPLane>
0.14205

> <Van der Waals Energy>
64.76377

> <Electrostatic Energy>
-36.23285

> <Hydrogen Bond Energy>
0

> <Solvation Free Energy>
0

> <HasGasteigerCharges>
true

> <REMARK99>
REMARK  99  MacroMolecule created from Mol2 file
REMARK  99  CHEMBL3597401
REMARK  99  PROTEIN
REMARK  99  GASTEIGER
REMARK  99
REMARK  99

$$$$
CHEMBL234858
  SciTegic05292516403D

 64 65  0  0  0  0            999 V2000
   -6.5203   -7.5769   -1.2223 C   0  0
   -7.1484   -8.4776   -0.3658 C   0  0
   -6.5838   -8.7779    0.8720 C   0  0
   -5.3768   -8.1889    1.2481 C   0  0
   -4.7222   -7.2914    0.3888 C   0  0
   -5.3167   -6.9830   -0.8459 C   0  0
   -3.3989   -6.6692    0.8040 C   0  0  1  0  0  0
   -2.3073   -6.9709   -0.2249 C   0  0
   -3.6053   -5.2372    0.8926 O   0  0
   -3.6845   -4.6317    2.1044 C   0  0
   -4.7494   -3.7973    2.2700 N   0  0
   -2.4903   -4.8017    3.2497 S   0  0
   -5.8208   -3.5868    1.3120 C   0  0
   -5.4352   -2.5550    0.2559 C   0  0
   -0.9217   -6.6297    0.3240 C   0  0
    0.1620   -7.4011   -0.3806 C   0  0
    0.2106   -8.7966   -0.2505 C   0  0
    1.2300   -9.5245   -0.8475 C   0  0
    2.2402   -8.8620   -1.5528 C   0  0
    2.1772   -7.4732   -1.7162 C   0  0
    1.1406   -6.7459   -1.1332 C   0  0
    3.4331   -9.6423   -2.0373 C   0  0
    4.2730  -10.1327   -0.8549 C   0  0  1  0  0  0
    5.2321  -11.2056   -1.3597 C   0  0
    6.5286  -10.8187   -1.2180 O   0  0
    4.9223  -12.2855   -1.8392 O   0  0
    5.1346   -9.0773   -0.3444 O   0  0
    4.6286   -8.5149    0.8720 C   0  0
    5.5466   -7.3805    1.2827 C   0  0
   -6.5770   -2.3209   -0.7315 C   0  0
   -6.2078   -1.2766   -1.7730 C   0  0
   -6.9769   -7.3315   -2.1783 H   0  0
   -8.0897   -8.9364   -0.6571 H   0  0
   -7.0964   -9.4629    1.5447 H   0  0
   -4.9480   -8.4381    2.2164 H   0  0
   -4.8427   -6.2729   -1.5203 H   0  0
   -3.1132   -7.0948    1.7726 H   0  0
   -2.3669   -8.0315   -0.4993 H   0  0
   -2.4625   -6.3994   -1.1492 H   0  0
   -4.8055   -3.2991    3.1518 H   0  0
   -6.0769   -4.5429    0.8463 H   0  0
   -6.6924   -3.2444    1.8802 H   0  0
   -5.1680   -1.6109    0.7472 H   0  0
   -4.5417   -2.8888   -0.2858 H   0  0
   -0.7467   -5.5501    0.2438 H   0  0
   -0.8474   -6.8787    1.3895 H   0  0
   -0.5419   -9.3236    0.3323 H   0  0
    1.2546  -10.6063   -0.7272 H   0  0
    2.9564   -6.9464   -2.2647 H   0  0
    1.1177   -5.6647   -1.2481 H   0  0
    3.0679  -10.4826   -2.6412 H   0  0
    4.0433   -9.0201   -2.7043 H   0  0
    3.6950  -10.5852   -0.0402 H   0  0
    6.5038   -9.9143   -0.8152 H   0  0
    3.6142   -8.1345    0.7349 H   0  0
    4.6209   -9.2852    1.6503 H   0  0
    5.2032   -6.9175    2.2120 H   0  0
    5.5875   -6.6154    0.5005 H   0  0
    6.5693   -7.7447    1.4262 H   0  0
   -6.8291   -3.2604   -1.2368 H   0  0
   -7.4735   -1.9907   -0.1939 H   0  0
   -7.0346   -1.1336   -2.4758 H   0  0
   -5.3259   -1.5851   -2.3433 H   0  0
   -5.9925   -0.3123   -1.3017 H   0  0
  1  2  2  0
  1 32  1  0
  2  3  1  0
  2 33  1  0
  3  4  2  0
  3 34  1  0
  4  5  1  0
  4 35  1  0
  5  6  2  0
  5  7  1  0
  6  1  1  0
  6 36  1  0
  7  8  1  0
  7  9  1  0
  7 37  1  0
  8 15  1  0
  8 38  1  0
  8 39  1  0
  9 10  1  0
 10 11  1  0
 10 12  2  0
 11 13  1  0
 11 40  1  0
 13 14  1  0
 13 41  1  0
 13 42  1  0
 14 30  1  0
 14 43  1  0
 14 44  1  0
 15 16  1  0
 15 45  1  0
 15 46  1  0
 16 17  2  0
 17 18  1  0
 17 47  1  0
 18 19  2  0
 18 48  1  0
 19 20  1  0
 19 22  1  0
 20 21  2  0
 20 49  1  0
 21 16  1  0
 21 50  1  0
 22 23  1  0
 22 51  1  0
 22 52  1  0
 23 24  1  0
 23 27  1  0
 23 53  1  0
 24 25  1  0
 24 26  2  0
 25 54  1  0
 27 28  1  0
 28 29  1  0
 28 55  1  0
 28 56  1  0
 29 57  1  0
 29 58  1  0
 29 59  1  0
 30 31  1  0
 30 60  1  0
 30 61  1  0
 31 62  1  0
 31 63  1  0
 31 64  1  0
M  END
> <Name>
CHEMBL234858

> <Clean Energy>
29.250401

> <chembl_id>
CHEMBL234858

> <chembl_pref_name>
None

> <efficacy>
1.18

> <Forcefield>
MMFF

> <ForcefieldBase>
MMFF

> <ForcefieldFFML>
<?xml version="1.0" encoding="UTF-8"?>
<!DOCTYPE ffml SYSTEM "Ffml.dtd">
<ffml version="1.0">
<forcefield name="MMFF" derivedFrom="MMFF" base="MMFF">
<atomTypes>
<atomType
name="C100"
element="C"
mass="12.011"
annotation=""/>
<atomType
name="O101"
element="O"
mass="16"
annotation=""/>
<atomType
name="N102"
element="N"
mass="14.007"
annotation=""/>
<atomType
name="S103"
element="S"
mass="32.066"
annotation=""/>
<atomType
name="H104"
element="H"
mass="1.008"
annotation=""/>
</atomTypes>
<parameters>
</parameters>
</forcefield>
</ffml>

> <Initial Potential Energy>
136.11877

> <Initial RMS Gradient>
25.41752

> <Minimization Criteria>
STEEPD> Minimization exiting with gradient tolerance ( 3.0000000) satisfied.

> <CHARMm Energy>
13.96439

> <Potential Energy>
13.96439

> <RMS Gradient>
0.12558

> <Bond Energy>
5.35342

> <Angle Energy>
8.67436

> <STRBend>
0.45646

> <Dihedral Energy>
1.03709

> <OOPLane>
0.23365

> <Van der Waals Energy>
58.04457

> <Electrostatic Energy>
-59.83517

> <Hydrogen Bond Energy>
0

> <Solvation Free Energy>
0

> <HasGasteigerCharges>
true

> <REMARK99>
REMARK  99  MacroMolecule created from Mol2 file
REMARK  99  CHEMBL234858
REMARK  99  PROTEIN
REMARK  99  GASTEIGER
REMARK  99
REMARK  99

$$$$
CHEMBL232799
  SciTegic05292516403D

 63 65  0  0  0  0            999 V2000
    6.8467  -21.9178    0.4158 C   0  0
    7.1246  -22.6563    1.5637 C   0  0
    8.3358  -22.4740    2.2286 C   0  0
    9.2697  -21.5516    1.7519 C   0  0
    9.0023  -20.7977    0.6003 C   0  0
    7.7807  -20.9978   -0.0664 C   0  0
   10.0208  -19.7811    0.1057 C   0  0  1  0  0  0
   10.6759  -20.2390   -1.2121 C   0  0
    9.2960  -18.5259   -0.1297 O   0  0
   11.9705  -19.6265   -1.3629 O   0  0
   13.0642  -20.4486   -1.2832 C   0  0
   14.1664  -20.0626   -2.0497 C   0  0
   15.3382  -20.8298   -2.0604 C   0  0
   15.4309  -21.9943   -1.2872 C   0  0
   14.3387  -22.3554   -0.4858 C   0  0
   13.1659  -21.5838   -0.4788 C   0  0
   16.6851  -22.8428   -1.3267 C   0  0
   17.6442  -22.6033   -0.1586 C   0  0  1  0  0  0
   18.8228  -23.5852   -0.2735 C   0  0
   19.9827  -22.9288   -0.5722 O   0  0
   18.7883  -24.7991   -0.1376 O   0  0
   18.2822  -21.2992   -0.2713 O   0  0
   17.8054  -20.3883    0.7242 C   0  0
   18.4145  -19.0281    0.4487 C   0  0
    8.9988  -17.6497    0.8686 C   0  0
    7.8632  -16.9228    0.6731 N   0  0
    9.9816  -17.4169    2.1901 S   0  0
    6.9647  -17.0634   -0.4517 C   0  0
    5.8150  -16.1008   -0.3456 C   0  0
    5.8979  -14.8257   -0.9231 C   0  0
    4.8415  -13.9245   -0.7969 C   0  0
    3.6998  -14.2878   -0.0856 C   0  0
    3.6117  -15.5473    0.5041 C   0  0
    4.6664  -16.4499    0.3783 C   0  0
    5.8961  -22.0523   -0.0969 H   0  0
    6.3932  -23.3692    1.9433 H   0  0
    8.5545  -23.0501    3.1243 H   0  0
   10.2092  -21.4274    2.2901 H   0  0
    7.5402  -20.4226   -0.9584 H   0  0
   10.8106  -19.6310    0.8480 H   0  0
   10.7316  -21.3310   -1.2952 H   0  0
   10.0768  -19.8948   -2.0639 H   0  0
   14.1042  -19.1635   -2.6585 H   0  0
   16.1759  -20.5158   -2.6829 H   0  0
   14.3848  -23.2492    0.1334 H   0  0
   12.3486  -21.8875    0.1681 H   0  0
   16.3844  -23.8985   -1.3566 H   0  0
   17.2048  -22.6576   -2.2765 H   0  0
   17.1840  -22.7363    0.8274 H   0  0
   19.7203  -21.9726   -0.6156 H   0  0
   16.7139  -20.3199    0.6926 H   0  0
   18.1149  -20.7421    1.7136 H   0  0
   18.0916  -18.2965    1.1946 H   0  0
   18.1242  -18.6714   -0.5453 H   0  0
   19.5078  -19.0856    0.4596 H   0  0
    7.6148  -16.2529    1.3932 H   0  0
    7.5310  -16.8979   -1.3756 H   0  0
    6.6012  -18.0966   -0.4815 H   0  0
    6.7911  -14.5312   -1.4706 H   0  0
    4.9052  -12.9368   -1.2486 H   0  0
    2.8780  -13.5836    0.0115 H   0  0
    2.7223  -15.8233    1.0646 H   0  0
    4.5943  -17.4278    0.8503 H   0  0
  1  2  2  0
  1 35  1  0
  2  3  1  0
  2 36  1  0
  3  4  2  0
  3 37  1  0
  4  5  1  0
  4 38  1  0
  5  6  2  0
  5  7  1  0
  6  1  1  0
  6 39  1  0
  7  8  1  0
  7  9  1  0
  7 40  1  0
  8 10  1  0
  8 41  1  0
  8 42  1  0
  9 25  1  0
 10 11  1  0
 11 12  2  0
 12 13  1  0
 12 43  1  0
 13 14  2  0
 13 44  1  0
 14 15  1  0
 14 17  1  0
 15 16  2  0
 15 45  1  0
 16 11  1  0
 16 46  1  0
 17 18  1  0
 17 47  1  0
 17 48  1  0
 18 19  1  0
 18 22  1  0
 18 49  1  0
 19 20  1  0
 19 21  2  0
 20 50  1  0
 22 23  1  0
 23 24  1  0
 23 51  1  0
 23 52  1  0
 24 53  1  0
 24 54  1  0
 24 55  1  0
 25 26  1  0
 25 27  2  0
 26 28  1  0
 26 56  1  0
 28 29  1  0
 28 57  1  0
 28 58  1  0
 29 30  2  0
 30 31  1  0
 30 59  1  0
 31 32  2  0
 31 60  1  0
 32 33  1  0
 32 61  1  0
 33 34  2  0
 33 62  1  0
 34 29  1  0
 34 63  1  0
M  END
> <Name>
CHEMBL232799

> <Clean Energy>
29.6646

> <chembl_id>
CHEMBL232799

> <chembl_pref_name>
None

> <efficacy>
1.38

> <Forcefield>
MMFF

> <ForcefieldBase>
MMFF

> <ForcefieldFFML>
<?xml version="1.0" encoding="UTF-8"?>
<!DOCTYPE ffml SYSTEM "Ffml.dtd">
<ffml version="1.0">
<forcefield name="MMFF" derivedFrom="MMFF" base="MMFF">
<atomTypes>
<atomType
name="C100"
element="C"
mass="12.011"
annotation=""/>
<atomType
name="O101"
element="O"
mass="16"
annotation=""/>
<atomType
name="N102"
element="N"
mass="14.007"
annotation=""/>
<atomType
name="S103"
element="S"
mass="32.066"
annotation=""/>
<atomType
name="H104"
element="H"
mass="1.008"
annotation=""/>
</atomTypes>
<parameters>
</parameters>
</forcefield>
</ffml>

> <Initial Potential Energy>
202.32465

> <Initial RMS Gradient>
31.44344

> <Minimization Criteria>
STEEPD> Minimization exiting with gradient tolerance ( 3.0000000) satisfied.

> <CHARMm Energy>
42.32878

> <Potential Energy>
42.32878

> <RMS Gradient>
0.05247

> <Bond Energy>
7.88273

> <Angle Energy>
16.42778

> <STRBend>
0.55602

> <Dihedral Energy>
8.30465

> <OOPLane>
0.10016

> <Van der Waals Energy>
68.1941

> <Electrostatic Energy>
-59.13665

> <Hydrogen Bond Energy>
0

> <Solvation Free Energy>
0

> <HasGasteigerCharges>
true

> <REMARK99>
REMARK  99  MacroMolecule created from Mol2 file
REMARK  99  CHEMBL232799
REMARK  99  PROTEIN
REMARK  99  GASTEIGER
REMARK  99
REMARK  99

$$$$
CHEMBL3763491
  SciTegic05292516403D

 44 45  0  0  0  0            999 V2000
    1.0428   -1.0315   -0.1821 C   0  0
    1.0188   -0.1191    0.8687 C   0  0
   -0.2000    0.2915    1.4069 C   0  0
   -1.4004   -0.2018    0.8932 C   0  0
   -1.3889   -1.1241   -0.1600 C   0  0
   -0.1549   -1.5347   -0.6910 C   0  0
   -2.6712   -1.7015   -0.6997 C   0  0
   -2.8483   -3.0682   -0.2925 N   0  0
   -3.9344   -3.7885   -0.7324 C   0  0
   -3.9679   -5.2119   -0.3192 C   0  0
   -4.8023   -3.3312   -1.4657 O   0  0
   -4.4997   -6.1488   -1.2106 C   0  0
   -4.4636   -7.5064   -0.8963 C   0  0
   -3.9012   -7.9340    0.3130 C   0  0
   -3.4241   -6.9847    1.2277 C   0  0
   -3.4574   -5.6273    0.9151 C   0  0
   -3.7607   -9.4047    0.6135 C   0  0
   -2.3103   -9.8969    0.4324 C   0  0  1  0  0  0
   -2.1868  -11.2675    1.0599 C   0  0
   -1.8727   -9.9760   -1.0434 C   0  0
   -0.9416   -8.8347   -1.4322 C   0  0
   -0.9092  -11.6069    1.3525 O   0  0
   -3.1230  -12.0203    1.2774 O   0  0
    1.9925   -1.3481   -0.6056 H   0  0
    1.9467    0.2979    1.2564 H   0  0
   -0.2137    1.0226    2.2132 H   0  0
   -2.3385    0.1631    1.3100 H   0  0
   -0.1280   -2.2629   -1.5006 H   0  0
   -3.5379   -1.1243   -0.3562 H   0  0
   -2.6709   -1.6530   -1.7955 H   0  0
   -2.1143   -3.5056    0.2458 H   0  0
   -4.9186   -5.8235   -2.1608 H   0  0
   -4.8573   -8.2279   -1.6103 H   0  0
   -3.0142   -7.3001    2.1851 H   0  0
   -3.0914   -4.9085    1.6425 H   0  0
   -4.0957   -9.5723    1.6464 H   0  0
   -4.4482   -9.9884   -0.0130 H   0  0
   -1.6433   -9.2354    1.0017 H   0  0
   -1.3447  -10.9166   -1.2446 H   0  0
   -2.7431   -9.9723   -1.7098 H   0  0
   -0.6504   -8.9283   -2.4832 H   0  0
   -0.0295   -8.8529   -0.8271 H   0  0
   -1.4199   -7.8605   -1.3020 H   0  0
   -0.2601  -10.9108    1.1307 H   0  0
  1  2  2  0
  1 24  1  0
  2  3  1  0
  2 25  1  0
  3  4  2  0
  3 26  1  0
  4  5  1  0
  4 27  1  0
  5  6  2  0
  5  7  1  0
  6  1  1  0
  6 28  1  0
  7  8  1  0
  7 29  1  0
  7 30  1  0
  8  9  1  0
  8 31  1  0
  9 10  1  0
  9 11  2  0
 10 12  2  0
 12 13  1  0
 12 32  1  0
 13 14  2  0
 13 33  1  0
 14 15  1  0
 14 17  1  0
 15 16  2  0
 15 34  1  0
 16 10  1  0
 16 35  1  0
 17 18  1  0
 17 36  1  0
 17 37  1  0
 18 19  1  0
 18 20  1  0
 18 38  1  0
 19 22  1  0
 19 23  2  0
 20 21  1  0
 20 39  1  0
 20 40  1  0
 21 41  1  0
 21 42  1  0
 21 43  1  0
 22 44  1  0
M  END
> <Name>
CHEMBL3763491

> <Clean Energy>
11.8822

> <chembl_id>
CHEMBL3763491

> <chembl_pref_name>
None

> <efficacy>
1.168091168

> <Forcefield>
MMFF

> <ForcefieldBase>
MMFF

> <ForcefieldFFML>
<?xml version="1.0" encoding="UTF-8"?>
<!DOCTYPE ffml SYSTEM "Ffml.dtd">
<ffml version="1.0">
<forcefield name="MMFF" derivedFrom="MMFF" base="MMFF">
<atomTypes>
<atomType
name="C100"
element="C"
mass="12.011"
annotation=""/>
<atomType
name="N101"
element="N"
mass="14.007"
annotation=""/>
<atomType
name="O102"
element="O"
mass="16"
annotation=""/>
<atomType
name="H103"
element="H"
mass="1.008"
annotation=""/>
</atomTypes>
<parameters>
</parameters>
</forcefield>
</ffml>

> <Initial Potential Energy>
68.63359

> <Initial RMS Gradient>
28.78368

> <Minimization Criteria>
CONJUG> Minimization exiting with gradient tolerance ( 0.0100000) satisfied.

> <CHARMm Energy>
1.10954

> <Potential Energy>
1.10954

> <RMS Gradient>
0.00957

> <Bond Energy>
4.08132

> <Angle Energy>
3.67346

> <STRBend>
0.46151

> <Dihedral Energy>
-1.24971

> <OOPLane>
0.11501

> <Van der Waals Energy>
44.52882

> <Electrostatic Energy>
-50.50086

> <Hydrogen Bond Energy>
0

> <Solvation Free Energy>
0

> <HasGasteigerCharges>
true

> <REMARK99>
REMARK  99  MacroMolecule created from Mol2 file
REMARK  99  CHEMBL3763491
REMARK  99  PROTEIN
REMARK  99  GASTEIGER
REMARK  99
REMARK  99

$$$$
CHEMBL3393183
  SciTegic05292516403D

 50 52  0  0  0  0            999 V2000
    3.3618   -2.2876   -0.5951 C   0  0
    2.9038   -0.8523   -0.7320 C   0  0
    3.5309   -3.0442   -1.5416 O   0  0
    3.5952   -2.6877    0.6791 O   0  0
    1.4776   -0.5405   -0.3331 C   0  0
    1.0676    0.8086   -0.2822 C   0  0
   -0.2574    1.1751    0.0295 C   0  0
   -1.1828    0.1709    0.3023 C   0  0
   -0.7912   -1.1721    0.2500 C   0  0
    0.5237   -1.5267   -0.0735 C   0  0
   -1.7736    3.1831    0.3265 C   0  0
   -1.6951    4.6780    0.5107 C   0  0
   -2.7755    5.5364    0.1858 C   0  0
   -2.5937    6.9227    0.3251 C   0  0
   -1.3985    7.4575    0.8123 C   0  0
   -0.3687    6.6092    1.1888 C   0  0
   -0.5139    5.2299    1.0437 C   0  0
   -2.8713    2.6373    0.3827 O   0  0
   -0.5555    2.5595    0.0686 N   0  0
   -5.1642    5.6693   -0.6307 C   0  0
   -6.4206    4.8617   -0.7306 C   0  0
   -7.6371    5.5673   -0.7217 C   0  0
   -8.8599    4.8923   -0.7326 C   0  0
   -8.8800    3.4971   -0.7434 C   0  0
   -7.6721    2.7902   -0.8118 C   0  0
   -6.4421    3.4617   -0.8034 C   0  0
   -5.2098    6.8609   -0.9134 O   0  0
   -4.0304    4.9897   -0.2044 N   0  0
  -10.4049    2.5847   -0.6611 S   0  0
  -11.0636    3.2352    0.8803 C   0  0
  -11.9284    2.3519    1.4440 F   0  0
  -10.0965    3.4927    1.7938 F   0  0
  -11.7654    4.3811    0.6794 F   0  0
    3.5972   -0.2305   -0.1518 H   0  0
    3.0369   -0.5707   -1.7844 H   0  0
    3.3755   -2.0018    1.3401 H   0  0
    1.7996    1.5827   -0.5068 H   0  0
   -2.2139    0.3998    0.5558 H   0  0
   -1.5067   -1.9657    0.4556 H   0  0
    0.7673   -2.5860   -0.1321 H   0  0
   -3.3875    7.6295    0.0926 H   0  0
   -1.2904    8.5392    0.9154 H   0  0
    0.5574    7.0073    1.5945 H   0  0
    0.3113    4.6041    1.3787 H   0  0
    0.2407    3.1545   -0.1406 H   0  0
   -7.6331    6.6557   -0.6849 H   0  0
   -9.7830    5.4700   -0.7173 H   0  0
   -7.6861    1.7029   -0.8535 H   0  0
   -5.5342    2.8653   -0.8568 H   0  0
   -4.0576    3.9728   -0.1053 H   0  0
  1  2  1  0
  1  3  2  0
  1  4  1  0
  2  5  1  0
  2 34  1  0
  2 35  1  0
  4 36  1  0
  5  6  1  0
  5 10  2  0
  6  7  2  0
  6 37  1  0
  7  8  1  0
  7 19  1  0
  8  9  2  0
  8 38  1  0
  9 10  1  0
  9 39  1  0
 10 40  1  0
 11 12  1  0
 11 18  2  0
 11 19  1  0
 12 13  1  0
 12 17  2  0
 13 14  2  0
 13 28  1  0
 14 15  1  0
 14 41  1  0
 15 16  2  0
 15 42  1  0
 16 17  1  0
 16 43  1  0
 17 44  1  0
 19 45  1  0
 20 21  1  0
 20 27  2  0
 20 28  1  0
 21 22  1  0
 21 26  2  0
 22 23  2  0
 22 46  1  0
 23 24  1  0
 23 47  1  0
 24 25  2  0
 24 29  1  0
 25 26  1  0
 25 48  1  0
 26 49  1  0
 28 50  1  0
 29 30  1  0
 30 31  1  0
 30 32  1  0
 30 33  1  0
M  END
> <Name>
CHEMBL3393183

> <Clean Energy>
3.92296

> <chembl_id>
CHEMBL3393183

> <chembl_pref_name>
None

> <efficacy>
1.500474834

> <Forcefield>
MMFF

> <ForcefieldBase>
MMFF

> <ForcefieldFFML>
<?xml version="1.0" encoding="UTF-8"?>
<!DOCTYPE ffml SYSTEM "Ffml.dtd">
<ffml version="1.0">
<forcefield name="MMFF" derivedFrom="MMFF" base="MMFF">
<atomTypes>
<atomType
name="C100"
element="C"
mass="12.011"
annotation=""/>
<atomType
name="O101"
element="O"
mass="16"
annotation=""/>
<atomType
name="N102"
element="N"
mass="14.007"
annotation=""/>
<atomType
name="S103"
element="S"
mass="32.066"
annotation=""/>
<atomType
name="F104"
element="F"
mass="18.998"
annotation=""/>
<atomType
name="H105"
element="H"
mass="1.008"
annotation=""/>
</atomTypes>
<parameters>
</parameters>
</forcefield>
</ffml>

> <Initial Potential Energy>
152.90883

> <Initial RMS Gradient>
32.42445

> <Minimization Criteria>
CONJUG> Minimization exiting with gradient tolerance ( 0.0100000) satisfied.

> <CHARMm Energy>
47.80037

> <Potential Energy>
47.80037

> <RMS Gradient>
0.00984

> <Bond Energy>
8.11598

> <Angle Energy>
13.81897

> <STRBend>
1.83054

> <Dihedral Energy>
8.86483

> <OOPLane>
0.08428

> <Van der Waals Energy>
66.38527

> <Electrostatic Energy>
-51.2995

> <Hydrogen Bond Energy>
0

> <Solvation Free Energy>
0

> <HasGasteigerCharges>
true

> <REMARK99>
REMARK  99  MacroMolecule created from Mol2 file
REMARK  99  CHEMBL3393183
REMARK  99  PROTEIN
REMARK  99  GASTEIGER
REMARK  99
REMARK  99

$$$$
CHEMBL497204
  SciTegic05292516403D

 69 72  0  0  0  0            999 V2000
   15.5825  -22.8947   -0.0213 C   0  0
   14.3327  -22.4195   -0.4951 O   0  0
   13.6225  -21.6559    0.4781 C   0  0
   12.3715  -21.0972   -0.1581 C   0  0
   12.4655  -20.1302   -1.1672 C   0  0
   11.3113  -19.6182   -1.7692 C   0  0
   10.0356  -20.0638   -1.3887 C   0  0
    9.9488  -21.0537   -0.4007 C   0  0
   11.1024  -21.5491    0.2261 C   0  0
    8.6459  -19.4601   -2.3367 S   0  0
    7.6001  -18.6199   -1.1461 C   0  0
    5.5907  -17.3235    0.3303 C   0  0
    5.4596  -18.6725    0.0120 C   0  0
    6.4467  -19.3055   -0.7398 C   0  0
    4.5867  -16.6670    1.0079 O   0  0
    3.3770  -16.6486    0.2296 C   0  0
    2.4397  -15.5859    0.7571 C   0  0
    2.8580  -14.9793    1.8952 O   0  0
    1.3814  -15.2924    0.2172 O   0  0
    8.7397  -21.5638    0.0007 O   0  0
    8.3879  -22.7217   -0.7711 C   0  0
    8.5158  -23.9367    0.0496 C   0  0
    6.8937  -15.1696    0.4053 C   0  0
    6.7547  -16.6155   -0.0212 C   0  0
    7.7810  -17.2717   -0.7550 C   0  0
    9.0097  -16.5005   -1.1957 C   0  0
    9.2367  -15.1965   -0.4363 C   0  0
    7.9489  -14.3964   -0.3761 C   0  0
    8.6120  -24.9268    0.7234 C   0  0
    8.7497  -26.1466    1.5335 C   0  0
    7.4787  -26.9779    1.4971 C   0  0
   16.3320  -23.5840   -1.1542 C   0  0
   17.3788  -24.4268   -0.4413 C   0  0
   16.7771  -24.7703    0.9216 C   0  0
   15.4545  -24.0158    1.0046 C   0  0
   16.1852  -22.0650    0.3703 H   0  0
   13.3623  -22.2883    1.3341 H   0  0
   14.2430  -20.8268    0.8396 H   0  0
   13.4479  -19.7970   -1.5049 H   0  0
   11.4058  -18.8692   -2.5525 H   0  0
   11.0021  -22.3082    0.9988 H   0  0
    4.5856  -19.2387    0.3186 H   0  0
    6.2924  -20.3413   -1.0316 H   0  0
    3.5939  -16.4056   -0.8178 H   0  0
    2.8664  -17.6130    0.3190 H   0  0
    3.7221  -15.3684    2.1604 H   0  0
    7.3426  -22.5997   -1.0749 H   0  0
    8.9776  -22.8162   -1.6927 H   0  0
    5.9377  -14.6457    0.2865 H   0  0
    7.1477  -15.1563    1.4727 H   0  0
    9.9081  -17.1101   -1.0613 H   0  0
    8.9074  -16.2770   -2.2651 H   0  0
    9.5879  -15.4109    0.5809 H   0  0
   10.0223  -14.6149   -0.9313 H   0  0
    7.5901  -14.1940   -1.3930 H   0  0
    8.1260  -13.4267    0.1020 H   0  0
    9.5878  -26.7459    1.1608 H   0  0
    8.9797  -25.8786    2.5707 H   0  0
    7.5963  -27.8803    2.1054 H   0  0
    7.2370  -27.2860    0.4740 H   0  0
    6.6252  -26.4130    1.8876 H   0  0
   15.6541  -24.2201   -1.7372 H   0  0
   16.7768  -22.8673   -1.8516 H   0  0
   17.6357  -25.3229   -1.0147 H   0  0
   18.2993  -23.8479   -0.3026 H   0  0
   16.6207  -25.8480    1.0344 H   0  0
   17.4555  -24.4524    1.7215 H   0  0
   14.6176  -24.6777    0.7498 H   0  0
   15.2658  -23.6356    2.0134 H   0  0
  1  2  1  0
  1 32  1  0
  1 36  1  0
  2  3  1  0
  3  4  1  0
  3 37  1  0
  3 38  1  0
  4  5  2  0
  5  6  1  0
  5 39  1  0
  6  7  2  0
  6 40  1  0
  7  8  1  0
  7 10  1  0
  8  9  2  0
  8 20  1  0
  9  4  1  0
  9 41  1  0
 10 11  1  0
 11 25  2  0
 12 13  1  0
 12 15  1  0
 13 14  2  0
 13 42  1  0
 14 11  1  0
 14 43  1  0
 15 16  1  0
 16 17  1  0
 16 44  1  0
 16 45  1  0
 17 18  1  0
 17 19  2  0
 18 46  1  0
 20 21  1  0
 21 22  1  0
 21 47  1  0
 21 48  1  0
 22 29  3  0
 23 24  1  0
 23 28  1  0
 23 49  1  0
 23 50  1  0
 24 12  2  0
 24 25  1  0
 25 26  1  0
 26 27  1  0
 26 51  1  0
 26 52  1  0
 27 28  1  0
 27 53  1  0
 27 54  1  0
 28 55  1  0
 28 56  1  0
 29 30  1  0
 30 31  1  0
 30 57  1  0
 30 58  1  0
 31 59  1  0
 31 60  1  0
 31 61  1  0
 32 33  1  0
 32 62  1  0
 32 63  1  0
 33 34  1  0
 33 64  1  0
 33 65  1  0
 34 35  1  0
 34 66  1  0
 34 67  1  0
 35  1  1  0
 35 68  1  0
 35 69  1  0
M  END
> <Name>
CHEMBL497204

> <Clean Energy>
136.313004

> <chembl_id>
CHEMBL497204

> <chembl_pref_name>
None

> <efficacy>
0.92

> <Forcefield>
MMFF

> <ForcefieldBase>
MMFF

> <ForcefieldFFML>
<?xml version="1.0" encoding="UTF-8"?>
<!DOCTYPE ffml SYSTEM "Ffml.dtd">
<ffml version="1.0">
<forcefield name="MMFF" derivedFrom="MMFF" base="MMFF">
<atomTypes>
<atomType
name="C100"
element="C"
mass="12.011"
annotation=""/>
<atomType
name="O101"
element="O"
mass="16"
annotation=""/>
<atomType
name="S102"
element="S"
mass="32.066"
annotation=""/>
<atomType
name="H103"
element="H"
mass="1.008"
annotation=""/>
</atomTypes>
<parameters>
</parameters>
</forcefield>
</ffml>

> <Initial Potential Energy>
494.68713

> <Initial RMS Gradient>
91.54315

> <Minimization Criteria>
STEEPD> Minimization exiting with gradient tolerance ( 3.0000000) satisfied.

> <CHARMm Energy>
75.27784

> <Potential Energy>
75.27784

> <RMS Gradient>
0.06209

> <Bond Energy>
6.56744

> <Angle Energy>
14.61292

> <STRBend>
0.47021

> <Dihedral Energy>
13.27452

> <OOPLane>
0.21397

> <Van der Waals Energy>
56.37164

> <Electrostatic Energy>
-16.23286

> <Hydrogen Bond Energy>
0

> <Solvation Free Energy>
0

> <HasGasteigerCharges>
true

> <REMARK99>
REMARK  99  MacroMolecule created from Mol2 file
REMARK  99  CHEMBL497204
REMARK  99  PROTEIN
REMARK  99  GASTEIGER
REMARK  99
REMARK  99

$$$$
CHEMBL489765
  SciTegic05292516403D

 48 49  0  0  0  0            999 V2000
   -6.6341   -0.4681    0.9171 C   0  0
   -6.3552   -1.6367    0.2081 C   0  0
   -5.0903   -1.8401   -0.3567 C   0  0
   -4.1097   -0.8516   -0.1992 C   0  0
   -4.3843    0.3191    0.5229 C   0  0
   -5.6535    0.5109    1.0737 C   0  0
   -3.3120    1.3448    0.6648 C   0  0
   -3.3345    2.2532    1.8795 C   0  0
   -2.4014    1.4184   -0.2622 N   0  0
   -1.4831    2.4373    0.0181 O   0  0
   -0.5209    2.5047   -1.0319 C   0  0
    0.5647    3.4438   -0.5818 C   0  0
    1.6618    2.9556    0.1428 C   0  0
    2.6380    3.8285    0.6172 C   0  0
    2.5188    5.1951    0.3778 C   0  0
    1.4273    5.6912   -0.3341 C   0  0
    0.4509    4.8200   -0.8110 C   0  0
   -4.7818   -3.1130   -1.1083 C   0  0
   -3.8930   -4.0988   -0.3320 C   0  0  1  0  0  0
   -4.7237   -4.7770    0.7793 C   0  0
   -3.3769   -5.0190   -1.3020 O   0  0
   -2.3413   -5.8553   -0.7890 C   0  0
   -1.8661   -6.7619   -1.9074 C   0  0
   -4.8718   -4.0147    1.8924 O   0  0
   -5.2007   -5.9024    0.7149 O   0  0
   -7.6236   -0.3140    1.3408 H   0  0
   -7.1369   -2.3860    0.0967 H   0  0
   -3.1263   -0.9880   -0.6481 H   0  0
   -5.9105    1.4230    1.6051 H   0  0
   -3.6961    3.2418    1.5829 H   0  0
   -2.3280    2.3479    2.2982 H   0  0
   -3.9699    1.8589    2.6758 H   0  0
   -0.1058    1.5098   -1.2350 H   0  0
   -0.9985    2.8708   -1.9482 H   0  0
    1.7428    1.8906    0.3545 H   0  0
    3.4830    3.4464    1.1827 H   0  0
    3.2753    5.8784    0.7531 H   0  0
    1.3347    6.7598   -0.5113 H   0  0
   -0.4075    5.2182   -1.3470 H   0  0
   -5.7154   -3.6085   -1.4075 H   0  0
   -4.2954   -2.8408   -2.0551 H   0  0
   -3.0428   -3.5825    0.1308 H   0  0
   -1.5091   -5.2364   -0.4364 H   0  0
   -2.7127   -6.4622    0.0423 H   0  0
   -1.0644   -7.4205   -1.5619 H   0  0
   -1.4987   -6.1712   -2.7531 H   0  0
   -2.6915   -7.3763   -2.2823 H   0  0
   -4.4820   -3.1193    1.8279 H   0  0
  1  2  2  0
  1 26  1  0
  2  3  1  0
  2 27  1  0
  3  4  2  0
  3 18  1  0
  4  5  1  0
  4 28  1  0
  5  6  2  0
  5  7  1  0
  6  1  1  0
  6 29  1  0
  7  8  1  0
  7  9  2  0
  8 30  1  0
  8 31  1  0
  8 32  1  0
  9 10  1  0
 10 11  1  0
 11 12  1  0
 11 33  1  0
 11 34  1  0
 12 13  2  0
 13 14  1  0
 13 35  1  0
 14 15  2  0
 14 36  1  0
 15 16  1  0
 15 37  1  0
 16 17  2  0
 16 38  1  0
 17 12  1  0
 17 39  1  0
 18 19  1  0
 18 40  1  0
 18 41  1  0
 19 20  1  0
 19 21  1  0
 19 42  1  0
 20 24  1  0
 20 25  2  0
 21 22  1  0
 22 23  1  0
 22 43  1  0
 22 44  1  0
 23 45  1  0
 23 46  1  0
 23 47  1  0
 24 48  1  0
M  END
> <Name>
CHEMBL489765

> <Clean Energy>
30.1684

> <chembl_id>
CHEMBL489765

> <chembl_pref_name>
None

> <efficacy>
1.41

> <Forcefield>
MMFF

> <ForcefieldBase>
MMFF

> <ForcefieldFFML>
<?xml version="1.0" encoding="UTF-8"?>
<!DOCTYPE ffml SYSTEM "Ffml.dtd">
<ffml version="1.0">
<forcefield name="MMFF" derivedFrom="MMFF" base="MMFF">
<atomTypes>
<atomType
name="C100"
element="C"
mass="12.011"
annotation=""/>
<atomType
name="N101"
element="N"
mass="14.007"
annotation=""/>
<atomType
name="O102"
element="O"
mass="16"
annotation=""/>
<atomType
name="H103"
element="H"
mass="1.008"
annotation=""/>
</atomTypes>
<parameters>
</parameters>
</forcefield>
</ffml>

> <Initial Potential Energy>
201.02124

> <Initial RMS Gradient>
26.37342

> <Minimization Criteria>
CONJUG> Minimization exiting with gradient tolerance ( 0.0100000) satisfied.

> <CHARMm Energy>
104.27495

> <Potential Energy>
104.27495

> <RMS Gradient>
0.00996

> <Bond Energy>
4.69221

> <Angle Energy>
6.85608

> <STRBend>
1.00377

> <Dihedral Energy>
1.41288

> <OOPLane>
0.04862

> <Van der Waals Energy>
46.40291

> <Electrostatic Energy>
43.85847

> <Hydrogen Bond Energy>
0

> <Solvation Free Energy>
0

> <HasGasteigerCharges>
true

> <REMARK99>
REMARK  99  MacroMolecule created from Mol2 file
REMARK  99  CHEMBL489765
REMARK  99  PROTEIN
REMARK  99  GASTEIGER
REMARK  99
REMARK  99

$$$$
CHEMBL1935491
  SciTegic05292516403D

 66 68  0  0  0  0            999 V2000
   -3.3232    2.1148    1.5596 C   0  0
   -4.2970    2.8574    2.1801 C   0  0
   -5.4114    2.8144    1.3997 O   0  0
   -5.0781    2.0307    0.3037 C   0  0
   -3.8188    1.6111    0.3801 N   0  0
   -4.3858    3.6329    3.4278 C   0  0
   -1.9313    1.8410    1.9822 C   0  0
   -0.9425    2.8032    1.3360 C   0  0
    0.3537    2.5121    1.8673 O   0  0
    1.3920    2.8843    1.0636 C   0  0
    2.4946    2.0391    1.0951 C   0  0
    2.5326    4.2880   -0.5354 C   0  0
    1.4174    4.0218    0.2629 C   0  0
   -5.9979    1.7220   -0.7681 C   0  0
   -7.2330    2.2736   -0.7037 C   0  0
   -8.3710    2.0914   -1.6576 C   0  0
   -5.5734    0.8335   -1.9258 C   0  0
   -5.7860   -0.6420   -1.6184 C   0  0
    3.6326    3.4199   -0.5375 C   0  0
    3.6059    2.2800    0.2759 C   0  0
    4.7410    1.3051    0.3166 C   0  0
    5.6782    1.4424   -0.7935 N   0  0
    6.0315    2.8252   -1.1919 C   0  0  1  0  0  0
    4.7836    3.6716   -1.4789 C   0  0
    6.5257    0.4144   -1.1513 C   0  0
    6.0530   -0.9644   -0.9201 C   0  0
    7.6670    0.6433   -1.5503 O   0  0
    6.8886   -1.8730   -0.3987 C   0  0
    6.4478   -3.2070   -0.0703 C   0  0
    7.2343   -4.0964    0.5478 C   0  0
    6.7978   -5.4767    0.9164 C   0  0
    7.0040    3.5171   -0.2174 C   0  0
    7.9526    2.6879    0.2938 O   0  0
    7.0723    4.7229   -0.0182 O   0  0
   -4.9923    3.0990    4.1657 H   0  0
   -4.8467    4.6085    3.2439 H   0  0
   -3.3953    3.8051    3.8594 H   0  0
   -1.8443    1.8977    3.0743 H   0  0
   -1.6605    0.8098    1.7230 H   0  0
   -0.9692    2.6724    0.2457 H   0  0
   -1.2035    3.8404    1.5796 H   0  0
    2.4713    1.1661    1.7443 H   0  0
    2.5358    5.1757   -1.1652 H   0  0
    0.5852    4.7172    0.2472 H   0  0
   -7.4787    2.9253    0.1351 H   0  0
   -8.5697    3.0306   -2.1826 H   0  0
   -9.2722    1.8170   -1.0996 H   0  0
   -8.2014    1.3085   -2.3997 H   0  0
   -6.1028    1.0984   -2.8474 H   0  0
   -4.5133    1.0067   -2.1497 H   0  0
   -5.4610   -1.2537   -2.4659 H   0  0
   -6.8424   -0.8600   -1.4307 H   0  0
   -5.2119   -0.9526   -0.7393 H   0  0
    5.3137    1.4574    1.2402 H   0  0
    4.3379    0.2892    0.3513 H   0  0
    6.6006    2.7695   -2.1310 H   0  0
    4.4227    3.4139   -2.4841 H   0  0
    5.0283    4.7400   -1.4910 H   0  0
    5.0225   -1.1890   -1.1600 H   0  0
    7.9218   -1.6087   -0.1749 H   0  0
    5.4220   -3.4766   -0.3197 H   0  0
    8.2609   -3.8438    0.8093 H   0  0
    6.8778   -5.6163    1.9989 H   0  0
    7.4410   -6.2139    0.4260 H   0  0
    5.7628   -5.6777    0.6220 H   0  0
    7.9951    1.8399   -0.2043 H   0  0
  1  2  2  0
  1  7  1  0
  2  3  1  0
  2  6  1  0
  3  4  1  0
  4  5  2  0
  4 14  1  0
  5  1  1  0
  6 35  1  0
  6 36  1  0
  6 37  1  0
  7  8  1  0
  7 38  1  0
  7 39  1  0
  8  9  1  0
  8 40  1  0
  8 41  1  0
  9 10  1  0
 10 11  2  0
 11 20  1  0
 11 42  1  0
 12 13  2  0
 12 43  1  0
 13 10  1  0
 13 44  1  0
 14 15  2  0
 14 17  1  0
 15 16  1  0
 15 45  1  0
 16 46  1  0
 16 47  1  0
 16 48  1  0
 17 18  1  0
 17 49  1  0
 17 50  1  0
 18 51  1  0
 18 52  1  0
 18 53  1  0
 19 12  1  0
 19 20  2  0
 19 24  1  0
 20 21  1  0
 21 22  1  0
 21 54  1  0
 21 55  1  0
 22 23  1  0
 22 25  1  0
 23 24  1  0
 23 32  1  0
 23 56  1  0
 24 57  1  0
 24 58  1  0
 25 26  1  0
 25 27  2  0
 26 28  2  0
 26 59  1  0
 28 29  1  0
 28 60  1  0
 29 30  2  0
 29 61  1  0
 30 31  1  0
 30 62  1  0
 31 63  1  0
 31 64  1  0
 31 65  1  0
 32 33  1  0
 32 34  2  0
 33 66  1  0
M  END
> <Name>
CHEMBL1935491

> <Clean Energy>
65.7332

> <chembl_id>
CHEMBL1935491

> <chembl_pref_name>
None

> <efficacy>
0.957894737

> <Forcefield>
MMFF

> <ForcefieldBase>
MMFF

> <ForcefieldFFML>
<?xml version="1.0" encoding="UTF-8"?>
<!DOCTYPE ffml SYSTEM "Ffml.dtd">
<ffml version="1.0">
<forcefield name="MMFF" derivedFrom="MMFF" base="MMFF">
<atomTypes>
<atomType
name="C100"
element="C"
mass="12.011"
annotation=""/>
<atomType
name="O101"
element="O"
mass="16"
annotation=""/>
<atomType
name="N102"
element="N"
mass="14.007"
annotation=""/>
<atomType
name="H103"
element="H"
mass="1.008"
annotation=""/>
</atomTypes>
<parameters>
</parameters>
</forcefield>
</ffml>

> <Initial Potential Energy>
117.40695

> <Initial RMS Gradient>
20.54689

> <Minimization Criteria>
STEEPD> Minimization exiting with gradient tolerance ( 3.0000000) satisfied.

> <CHARMm Energy>
22.01088

> <Potential Energy>
22.01088

> <RMS Gradient>
0.07283

> <Bond Energy>
5.99891

> <Angle Energy>
17.80508

> <STRBend>
-0.84035

> <Dihedral Energy>
-3.58931

> <OOPLane>
1.13743

> <Van der Waals Energy>
54.9238

> <Electrostatic Energy>
-53.42469

> <Hydrogen Bond Energy>
0

> <Solvation Free Energy>
0

> <HasGasteigerCharges>
true

> <REMARK99>
REMARK  99  MacroMolecule created from Mol2 file
REMARK  99  CHEMBL1935491
REMARK  99  PROTEIN
REMARK  99  GASTEIGER
REMARK  99
REMARK  99

$$$$
CHEMBL167043
  SciTegic05292516403D

 57 60  0  0  0  0            999 V2000
   -1.9472   -1.8599   -0.9647 O   0  0
    0.4612   -1.3907    0.5354 C   0  0
   -0.3269   -2.6817    0.6517 C   0  0
   -0.4697   -0.2669    0.1335 C   0  0
   -1.6018   -0.5686   -0.6339 C   0  0
   -1.4634   -2.8547   -0.1457 C   0  0
   10.0652   -0.0002    0.9914 C   0  0
    9.7899   -1.2837    0.2060 C   0  0  2  0  0  0
    9.4435    1.0458    0.8965 O   0  0
    8.6255   -2.0473    0.8541 C   0  0
    7.2807   -1.6961    0.2627 C   0  0
   11.1238   -0.1322    1.8367 O   0  0
    4.8033   -1.0296   -0.8627 C   0  0
    1.5980   -1.5946   -0.4870 C   0  0
   10.9827   -2.1058    0.2997 O   0  0
    6.6866   -2.5328   -0.6916 C   0  0
    6.6267   -0.5136    0.6320 C   0  0
    5.4546   -2.1971   -1.2538 C   0  0
    5.4012   -0.1725    0.0582 C   0  0
    3.6190   -0.7528   -1.4841 O   0  0
    2.5486   -0.4049   -0.5969 C   0  0
   -0.2228    1.0669    0.4900 C   0  0
    0.0860   -3.7263    1.4903 C   0  0
   -2.4443    0.4439   -1.0872 C   0  0
   -2.1558   -4.0638   -0.1390 C   0  0
   11.8700   -1.9091   -0.8102 C   0  0
   -1.0802    2.0791    0.0552 C   0  0
   -0.6204   -4.9296    1.5135 C   0  0
   -2.1832    1.7683   -0.7410 C   0  0
   -1.7345   -5.1008    0.6926 C   0  0
   13.1189   -2.7331   -0.5706 C   0  0
    0.8783   -1.1577    1.5242 H   0  0
    9.5914   -1.0350   -0.8429 H   0  0
    8.7882   -3.1278    0.7454 H   0  0
    8.5940   -1.8745    1.9382 H   0  0
   11.5634   -1.0052    1.6999 H   0  0
    2.1864   -2.4816   -0.2137 H   0  0
    1.1947   -1.8175   -1.4850 H   0  0
    7.1804   -3.4493   -1.0074 H   0  0
    7.0777    0.1665    1.3538 H   0  0
    4.9995   -2.8466   -1.9966 H   0  0
    4.9411    0.7743    0.3233 H   0  0
    2.8836   -0.0997    0.4002 H   0  0
    2.0425    0.4520   -1.0517 H   0  0
    0.6441    1.3235    1.0967 H   0  0
    0.9666   -3.6105    2.1186 H   0  0
   -3.3126    0.1987   -1.6919 H   0  0
   -3.0292   -4.1937   -0.7714 H   0  0
   11.3757   -2.2371   -1.7310 H   0  0
   12.1321   -0.8491   -0.8964 H   0  0
   -0.8992    3.1152    0.3337 H   0  0
   -0.3077   -5.7392    2.1685 H   0  0
   -2.8449    2.5585   -1.0842 H   0  0
   -2.2804   -6.0404    0.7056 H   0  0
   13.8253   -2.6213   -1.3978 H   0  0
   12.8668   -3.7933   -0.4607 H   0  0
   13.6114   -2.4255    0.3578 H   0  0
  2  3  1  0
  2 32  1  0
  3  6  1  0
  4  2  1  0
  4  5  2  0
  5  1  1  0
  6  1  1  0
  7  8  1  0
  8 10  1  0
  8 33  1  0
  9  7  2  0
 10 11  1  0
 10 34  1  0
 10 35  1  0
 11 17  2  0
 12  7  1  0
 12 36  1  0
 13 20  1  0
 14  2  1  0
 14 37  1  0
 14 38  1  0
 15  8  1  0
 16 11  1  0
 16 18  2  0
 16 39  1  0
 17 19  1  0
 17 40  1  0
 18 13  1  0
 18 41  1  0
 19 13  2  0
 19 42  1  0
 20 21  1  0
 21 14  1  0
 21 43  1  0
 21 44  1  0
 22  4  1  0
 22 27  2  0
 22 45  1  0
 23  3  2  0
 23 28  1  0
 23 46  1  0
 24  5  1  0
 24 47  1  0
 25  6  2  0
 25 48  1  0
 26 15  1  0
 26 49  1  0
 26 50  1  0
 27 29  1  0
 27 51  1  0
 28 30  2  0
 28 52  1  0
 29 24  2  0
 29 53  1  0
 30 25  1  0
 30 54  1  0
 31 26  1  0
 31 55  1  0
 31 56  1  0
 31 57  1  0
M  END
> <Name>
CHEMBL167043

> <Clean Energy>
22.558599

> <chembl_id>
CHEMBL167043

> <chembl_pref_name>
None

> <efficacy>
1.173

> <Forcefield>
MMFF

> <ForcefieldBase>
MMFF

> <ForcefieldFFML>
<?xml version="1.0" encoding="UTF-8"?>
<!DOCTYPE ffml SYSTEM "Ffml.dtd">
<ffml version="1.0">
<forcefield name="MMFF" derivedFrom="MMFF" base="MMFF">
<atomTypes>
<atomType
name="O100"
element="O"
mass="16"
annotation=""/>
<atomType
name="C101"
element="C"
mass="12.011"
annotation=""/>
<atomType
name="H102"
element="H"
mass="1.008"
annotation=""/>
</atomTypes>
<parameters>
</parameters>
</forcefield>
</ffml>

> <Initial Potential Energy>
186.34779

> <Initial RMS Gradient>
28.02903

> <Minimization Criteria>
STEEPD> Minimization exiting with gradient tolerance ( 3.0000000) satisfied.

> <CHARMm Energy>
84.62347

> <Potential Energy>
84.62347

> <RMS Gradient>
0.09234

> <Bond Energy>
6.21209

> <Angle Energy>
11.04215

> <STRBend>
0.75022

> <Dihedral Energy>
9.06588

> <OOPLane>
0.06948

> <Van der Waals Energy>
68.11638

> <Electrostatic Energy>
-10.63272

> <Hydrogen Bond Energy>
0

> <Solvation Free Energy>
0

> <HasGasteigerCharges>
true

> <REMARK99>
REMARK  99  MacroMolecule created from Mol2 file
REMARK  99  CHEMBL167043
REMARK  99  PROTEIN
REMARK  99  GASTEIGER
REMARK  99
REMARK  99

$$$$
CHEMBL234820
  SciTegic05292516403D

 68 70  0  0  0  0            999 V2000
    7.1471  -10.8839   -1.7461 C   0  0
    6.3588  -11.5162   -0.7880 C   0  0
    6.7023  -11.4440    0.5603 C   0  0
    7.8372  -10.7370    0.9564 C   0  0
    8.6460  -10.1002    0.0035 C   0  0
    8.2870  -10.1833   -1.3534 C   0  0
    9.9120   -9.3799    0.4433 C   0  0  1  0  0  0
   11.1346  -10.1825   -0.0216 C   0  0
    9.9121   -8.0521   -0.1393 O   0  0
    9.7404   -7.0020    0.7046 C   0  0
    8.5843   -6.2958    0.5744 N   0  0
   10.9598   -6.5602    1.7464 S   0  0
    7.5033   -6.5368   -0.3734 C   0  0
    7.2904   -5.3537   -1.3224 C   0  0
   12.4434   -9.6521    0.5659 C   0  0
   13.5871  -10.6342    0.4795 C   0  0
   13.8347  -11.3735   -0.6839 C   0  0
   14.9077  -12.2577   -0.7412 C   0  0
   15.7646  -12.3942    0.3567 C   0  0
   15.5262  -11.6576    1.5204 C   0  0
   14.4470  -10.7809    1.5779 C   0  0
   16.9799  -13.2753    0.2525 C   0  0
   18.0680  -12.6198   -0.5979 C   0  0  2  0  0  0
   19.1035  -13.6885   -0.9301 C   0  0
   20.2977  -13.4350   -0.3319 O   0  0
   18.9146  -14.6708   -1.6317 O   0  0
   18.7970  -11.6180    0.1611 O   0  0
   18.4468  -10.2884   -0.2391 C   0  0
   19.1765   -9.3170    0.6671 C   0  0
    6.7235   -4.1299   -0.6383 C   0  0
    7.5667   -3.0863   -0.2326 C   0  0
    7.0415   -1.9578    0.3991 C   0  0
    5.6706   -1.8631    0.6332 C   0  0
    4.8234   -2.8973    0.2391 C   0  0
    5.3471   -4.0273   -0.3916 C   0  0
    6.8668  -10.9427   -2.7961 H   0  0
    5.4743  -12.0704   -1.0932 H   0  0
    6.0834  -11.9447    1.3020 H   0  0
    8.0860  -10.6956    2.0149 H   0  0
    8.9007   -9.6990   -2.1105 H   0  0
    9.9108   -9.3155    1.5391 H   0  0
   11.0059  -11.2334    0.2722 H   0  0
   11.2030  -10.1596   -1.1167 H   0  0
    8.4554   -5.5157    1.2123 H   0  0
    7.7268   -7.4233   -0.9690 H   0  0
    6.6024   -6.7426    0.2144 H   0  0
    8.2341   -5.0958   -1.8197 H   0  0
    6.5998   -5.6530   -2.1211 H   0  0
   12.7417   -8.7282    0.0570 H   0  0
   12.2812   -9.4109    1.6229 H   0  0
   13.1975  -11.2652   -1.5580 H   0  0
   15.0842  -12.8294   -1.6511 H   0  0
   16.1958  -11.7468    2.3755 H   0  0
   14.2825  -10.2022    2.4847 H   0  0
   17.3646  -13.4974    1.2564 H   0  0
   16.6690  -14.2372   -0.1754 H   0  0
   17.7106  -12.2071   -1.5490 H   0  0
   20.1875  -12.5863    0.1662 H   0  0
   18.7572  -10.1314   -1.2778 H   0  0
   17.3685  -10.1290   -0.1606 H   0  0
   18.9526   -8.2828    0.3915 H   0  0
   20.2589   -9.4727    0.6085 H   0  0
   18.8881   -9.4752    1.7116 H   0  0
    8.6395   -3.1490   -0.4084 H   0  0
    7.7010   -1.1488    0.7051 H   0  0
    5.2617   -0.9803    1.1195 H   0  0
    3.7539   -2.8206    0.4198 H   0  0
    4.6740   -4.8260   -0.6949 H   0  0
  1  2  2  0
  1 36  1  0
  2  3  1  0
  2 37  1  0
  3  4  2  0
  3 38  1  0
  4  5  1  0
  4 39  1  0
  5  6  2  0
  5  7  1  0
  6  1  1  0
  6 40  1  0
  7  8  1  0
  7  9  1  0
  7 41  1  0
  8 15  1  0
  8 42  1  0
  8 43  1  0
  9 10  1  0
 10 11  1  0
 10 12  2  0
 11 13  1  0
 11 44  1  0
 13 14  1  0
 13 45  1  0
 13 46  1  0
 14 30  1  0
 14 47  1  0
 14 48  1  0
 15 16  1  0
 15 49  1  0
 15 50  1  0
 16 17  2  0
 17 18  1  0
 17 51  1  0
 18 19  2  0
 18 52  1  0
 19 20  1  0
 19 22  1  0
 20 21  2  0
 20 53  1  0
 21 16  1  0
 21 54  1  0
 22 23  1  0
 22 55  1  0
 22 56  1  0
 23 24  1  0
 23 27  1  0
 23 57  1  0
 24 25  1  0
 24 26  2  0
 25 58  1  0
 27 28  1  0
 28 29  1  0
 28 59  1  0
 28 60  1  0
 29 61  1  0
 29 62  1  0
 29 63  1  0
 30 31  2  0
 31 32  1  0
 31 64  1  0
 32 33  2  0
 32 65  1  0
 33 34  1  0
 33 66  1  0
 34 35  2  0
 34 67  1  0
 35 30  1  0
 35 68  1  0
M  END
> <Name>
CHEMBL234820

> <Clean Energy>
33.736

> <chembl_id>
CHEMBL234820

> <chembl_pref_name>
None

> <efficacy>
1.9

> <Forcefield>
MMFF

> <ForcefieldBase>
MMFF

> <ForcefieldFFML>
<?xml version="1.0" encoding="UTF-8"?>
<!DOCTYPE ffml SYSTEM "Ffml.dtd">
<ffml version="1.0">
<forcefield name="MMFF" derivedFrom="MMFF" base="MMFF">
<atomTypes>
<atomType
name="C100"
element="C"
mass="12.011"
annotation=""/>
<atomType
name="O101"
element="O"
mass="16"
annotation=""/>
<atomType
name="N102"
element="N"
mass="14.007"
annotation=""/>
<atomType
name="S103"
element="S"
mass="32.066"
annotation=""/>
<atomType
name="H104"
element="H"
mass="1.008"
annotation=""/>
</atomTypes>
<parameters>
</parameters>
</forcefield>
</ffml>

> <Initial Potential Energy>
207.79401

> <Initial RMS Gradient>
29.05423

> <Minimization Criteria>
STEEPD> Minimization exiting with gradient tolerance ( 3.0000000) satisfied.

> <CHARMm Energy>
42.96749

> <Potential Energy>
42.96749

> <RMS Gradient>
0.02397

> <Bond Energy>
6.99501

> <Angle Energy>
8.37278

> <STRBend>
0.48128

> <Dihedral Energy>
8.55423

> <OOPLane>
0.1988

> <Van der Waals Energy>
69.81596

> <Electrostatic Energy>
-51.45058

> <Hydrogen Bond Energy>
0

> <Solvation Free Energy>
0

> <HasGasteigerCharges>
true

> <REMARK99>
REMARK  99  MacroMolecule created from Mol2 file
REMARK  99  CHEMBL234820
REMARK  99  PROTEIN
REMARK  99  GASTEIGER
REMARK  99
REMARK  99

$$$$
CHEMBL3393187
  SciTegic05292516403D

 52 55  0  0  0  0            999 V2000
  -12.0006   -7.0191   -0.3406 C   0  0
  -11.7501   -5.5318   -0.2611 C   0  0
  -12.2759   -7.7221    0.6222 O   0  0
  -11.8974   -7.5381   -1.5887 O   0  0
  -10.3173   -5.1003   -0.0426 C   0  0
   -9.9788   -3.7452   -0.2448 C   0  0
   -8.6957   -3.2472    0.0459 C   0  0
   -7.7343   -4.1304    0.5259 C   0  0
   -8.0478   -5.4802    0.7176 C   0  0
   -9.3309   -5.9612    0.4483 C   0  0
   -7.3552   -1.1134    0.1887 C   0  0
   -7.5202    0.3876    0.1491 C   0  0
   -6.4117    1.2683    0.0026 C   0  0
   -6.6782    2.6451   -0.0710 C   0  0
   -7.9772    3.1559    0.0344 C   0  0
   -9.0460    2.3002    0.2394 C   0  0
   -8.8176    0.9274    0.3087 C   0  0
   -6.2483   -1.5702    0.4623 O   0  0
   -8.4898   -1.8584   -0.1203 N   0  0
   -3.8811    1.4998   -0.1364 C   0  0
   -2.5798    0.7424   -0.0686 C   0  0
   -1.3939    1.4898   -0.2409 C   0  0
   -1.2025   -1.2313    0.2373 C   0  0
   -2.4741   -0.6330    0.1689 C   0  0
   -3.8231    2.7164   -0.2895 O   0  0
   -5.0675    0.7692   -0.0309 N   0  0
   -0.1167    0.8992   -0.1769 C   0  0
   -0.0189   -0.4838    0.0675 C   0  0
    1.2596   -1.0742    0.1375 C   0  0
    2.4244   -0.3140   -0.0303 C   0  0
    2.3266    1.0522   -0.2722 C   0  0
    1.0634    1.6520   -0.3452 C   0  0
  -12.1462   -5.0706   -1.1746 H   0  0
  -12.3625   -5.1457    0.5637 H   0  0
  -11.6076   -6.8813   -2.2515 H   0  0
  -10.7515   -3.0639   -0.5967 H   0  0
   -6.7315   -3.8011    0.7754 H   0  0
   -7.2865   -6.1563    1.1032 H   0  0
   -9.5397   -7.0096    0.6546 H   0  0
   -5.8863    3.3789   -0.1964 H   0  0
   -8.1281    4.2338   -0.0177 H   0  0
  -10.0573    2.6800    0.3552 H   0  0
   -9.6760    0.2988    0.5274 H   0  0
   -9.2735   -1.3591   -0.5140 H   0  0
   -1.4681    2.5613   -0.4253 H   0  0
   -1.1296   -2.2991    0.4349 H   0  0
   -3.3420   -1.2694    0.3191 H   0  0
   -5.0295   -0.2462    0.0754 H   0  0
    1.3557   -2.1416    0.3268 H   0  0
    3.4029   -0.7870    0.0282 H   0  0
    3.2275    1.6504   -0.4030 H   0  0
    1.0078    2.7224   -0.5341 H   0  0
  1  2  1  0
  1  3  2  0
  1  4  1  0
  2  5  1  0
  2 33  1  0
  2 34  1  0
  4 35  1  0
  5  6  1  0
  5 10  2  0
  6  7  2  0
  6 36  1  0
  7  8  1  0
  7 19  1  0
  8  9  2  0
  8 37  1  0
  9 10  1  0
  9 38  1  0
 10 39  1  0
 11 12  1  0
 11 18  2  0
 11 19  1  0
 12 13  1  0
 12 17  2  0
 13 14  2  0
 13 26  1  0
 14 15  1  0
 14 40  1  0
 15 16  2  0
 15 41  1  0
 16 17  1  0
 16 42  1  0
 17 43  1  0
 19 44  1  0
 20 21  1  0
 20 25  2  0
 20 26  1  0
 21 22  1  0
 21 24  2  0
 22 27  2  0
 22 45  1  0
 23 24  1  0
 23 46  1  0
 24 47  1  0
 26 48  1  0
 27 28  1  0
 28 23  2  0
 28 29  1  0
 29 30  2  0
 29 49  1  0
 30 31  1  0
 30 50  1  0
 31 32  2  0
 31 51  1  0
 32 27  1  0
 32 52  1  0
M  END
> <Name>
CHEMBL3393187

> <Clean Energy>
2.73541

> <chembl_id>
CHEMBL3393187

> <chembl_pref_name>
None

> <efficacy>
3.181386515

> <Forcefield>
MMFF

> <ForcefieldBase>
MMFF

> <ForcefieldFFML>
<?xml version="1.0" encoding="UTF-8"?>
<!DOCTYPE ffml SYSTEM "Ffml.dtd">
<ffml version="1.0">
<forcefield name="MMFF" derivedFrom="MMFF" base="MMFF">
<atomTypes>
<atomType
name="C100"
element="C"
mass="12.011"
annotation=""/>
<atomType
name="O101"
element="O"
mass="16"
annotation=""/>
<atomType
name="N102"
element="N"
mass="14.007"
annotation=""/>
<atomType
name="H103"
element="H"
mass="1.008"
annotation=""/>
</atomTypes>
<parameters>
</parameters>
</forcefield>
</ffml>

> <Initial Potential Energy>
166.72496

> <Initial RMS Gradient>
34.36798

> <Minimization Criteria>
CONJUG> Minimization exiting with gradient tolerance ( 0.0100000) satisfied.

> <CHARMm Energy>
71.10409

> <Potential Energy>
71.10409

> <RMS Gradient>
0.00996

> <Bond Energy>
11.49578

> <Angle Energy>
14.10237

> <STRBend>
1.8031

> <Dihedral Energy>
2.57132

> <OOPLane>
0.10407

> <Van der Waals Energy>
78.94491

> <Electrostatic Energy>
-37.91745

> <Hydrogen Bond Energy>
0

> <Solvation Free Energy>
0

> <HasGasteigerCharges>
true

> <REMARK99>
REMARK  99  MacroMolecule created from Mol2 file
REMARK  99  CHEMBL3393187
REMARK  99  PROTEIN
REMARK  99  GASTEIGER
REMARK  99
REMARK  99

$$$$
CHEMBL144112
  SciTegic05292516403D

 96 99  0  0  0  0            999 V2000
   -8.8032   -1.9365    1.7459 C   0  0
   21.2464    2.4533    2.0641 C   0  0
   11.4613   -2.4864   -0.9145 C   0  0
    1.5938   -0.7453   -2.3842 C   0  0
   -7.3716   -1.5442    1.3705 C   0  0  2  0  0  0
   20.1918    1.5134    1.4437 C   0  0  2  0  0  0
   10.0181   -2.2220   -1.1161 C   0  0
    3.0349   -1.0067   -2.1578 C   0  0
    5.8091   -1.4879   -1.7432 C   0  0
    7.2468   -1.7348   -1.5280 C   0  0
   -9.6605   -2.3120    0.9605 O   0  0
   22.1727    2.1025    2.7817 O   0  0
   18.8905    1.6628    2.2525 C   0  0
   -6.6442   -2.7837    0.8380 C   0  0
   12.2072   -1.5400   -0.3141 C   0  0
    0.6921   -1.5760   -1.8280 C   0  0
    9.5908   -1.1670   -1.9302 C   0  0
    3.5960   -2.2570   -2.4451 C   0  0
    9.0521   -3.0310   -0.5086 C   0  0
    3.8715    0.0003   -1.6632 C   0  0
    8.2242   -0.9261   -2.1302 C   0  0
    5.2374   -0.2383   -1.4590 C   0  0
    4.9625   -2.4934   -2.2372 C   0  0
    7.6868   -2.7892   -0.7125 C   0  0
   17.6712    1.1159    1.5383 C   0  0
   -5.2176   -2.4992    0.4251 C   0  0
   21.0825    3.7583    1.7234 O   0  0
   -9.0273   -1.8290    3.0830 O   0  0
   15.3713    0.0822    0.2766 C   0  0
   -2.5629   -1.9082   -0.2960 C   0  0
   13.6738   -1.5692    0.0198 C   0  0
   -0.8069   -1.4822   -1.8591 C   0  0
   20.5633    0.1325    1.4672 O   0  0
   -6.7442   -1.0794    2.5901 O   0  0
   -4.1778   -2.6552    1.3499 C   0  0
   16.7665    1.9721    0.9006 C   0  0
   17.4220   -0.2638    1.5113 C   0  0
   -4.9130   -2.0397   -0.8626 C   0  0
   -3.5915   -1.7456   -1.2221 C   0  0
   15.6301    1.4548    0.2712 C   0  0
   16.2836   -0.7793    0.8810 C   0  0
   -2.8645   -2.3554    0.9911 C   0  0
   14.2139   -0.2943   -0.3474 O   0  0
   -1.2400   -1.6502   -0.5082 O   0  0
   11.9292   -3.8343   -1.3890 C   0  0
    1.2775    0.4585   -3.2275 C   0  0
   21.6189   -0.1819    0.5611 C   0  0
   -6.1318    0.2034    2.4278 C   0  0
   21.8916   -1.6705    0.6510 C   0  0
   -5.4239    0.5561    3.7202 C   0  0
   -7.4293   -0.7391    0.6276 H   0  0
   20.0342    1.8159    0.4004 H   0  0
   18.9848    1.1439    3.2163 H   0  0
   18.7068    2.7166    2.4985 H   0  0
   -6.6368   -3.5717    1.6033 H   0  0
   -7.1866   -3.2060   -0.0177 H   0  0
   11.7298   -0.6147    0.0107 H   0  0
    1.0422   -2.4164   -1.2283 H   0  0
   10.3197   -0.5325   -2.4293 H   0  0
    2.9787   -3.0578   -2.8477 H   0  0
    9.3473   -3.8532    0.1392 H   0  0
    3.4688    0.9791   -1.4127 H   0  0
    7.9323   -0.1035   -2.7801 H   0  0
    5.8522    0.5639   -1.0564 H   0  0
    5.3620   -3.4756   -2.4819 H   0  0
    6.9634   -3.4284   -0.2111 H   0  0
   20.3333    3.9324    1.1234 H   0  0
   -8.1806   -1.5227    3.4906 H   0  0
   13.7618   -1.7337    1.1007 H   0  0
   14.2111   -2.3507   -0.5237 H   0  0
   -1.1543   -0.5144   -2.2315 H   0  0
   -1.1879   -2.2927   -2.4917 H   0  0
   -4.3876   -2.9972    2.3616 H   0  0
   16.9233    3.0477    0.8994 H   0  0
   18.1190   -0.9525    1.9872 H   0  0
   -5.7020   -1.9041   -1.5993 H   0  0
   -3.4021   -1.3830   -2.2269 H   0  0
   14.9257    2.1291   -0.2107 H   0  0
   16.1427   -1.8551    0.8771 H   0  0
   -2.0658   -2.4755    1.7195 H   0  0
   13.0136   -3.9509   -1.3197 H   0  0
   11.6580   -3.9855   -2.4398 H   0  0
   11.4800   -4.6377   -0.7961 H   0  0
    1.9498    0.5167   -4.0911 H   0  0
    1.3791    1.3797   -2.6448 H   0  0
    0.2608    0.4254   -3.6297 H   0  0
   21.3177    0.0771   -0.4598 H   0  0
   22.5253    0.3743    0.8188 H   0  0
   -5.4125    0.1824    1.6031 H   0  0
   -6.9056    0.9477    2.2107 H   0  0
   22.6921   -1.9626   -0.0344 H   0  0
   20.9905   -2.2431    0.4071 H   0  0
   22.1797   -1.9486    1.6702 H   0  0
   -4.9451    1.5366    3.6480 H   0  0
   -4.6614   -0.1930    3.9582 H   0  0
   -6.1308    0.5678    4.5564 H   0  0
  2  6  1  0
  3  7  1  0
  4 16  2  0
  5  1  1  0
  5 34  1  0
  5 51  1  0
  6 13  1  0
  6 33  1  0
  6 52  1  0
  7 17  1  0
  7 19  2  0
  8  4  1  0
  9 22  2  0
 10  9  1  0
 11  1  2  0
 12  2  2  0
 13 25  1  0
 13 53  1  0
 13 54  1  0
 14  5  1  0
 14 55  1  0
 14 56  1  0
 15  3  2  0
 15 57  1  0
 16 32  1  0
 16 58  1  0
 17 21  2  0
 17 59  1  0
 18  8  1  0
 18 60  1  0
 19 24  1  0
 19 61  1  0
 20  8  2  0
 20 62  1  0
 21 10  1  0
 21 63  1  0
 22 20  1  0
 22 64  1  0
 23  9  1  0
 23 18  2  0
 23 65  1  0
 24 10  2  0
 24 66  1  0
 25 36  1  0
 25 37  2  0
 26 14  1  0
 27  2  1  0
 27 67  1  0
 28  1  1  0
 28 68  1  0
 29 43  1  0
 30 39  2  0
 31 15  1  0
 31 69  1  0
 31 70  1  0
 32 44  1  0
 32 71  1  0
 32 72  1  0
 35 26  1  0
 35 73  1  0
 36 40  2  0
 36 74  1  0
 37 41  1  0
 37 75  1  0
 38 26  2  0
 38 76  1  0
 39 38  1  0
 39 77  1  0
 40 29  1  0
 40 78  1  0
 41 29  2  0
 41 79  1  0
 42 30  1  0
 42 35  2  0
 42 80  1  0
 43 31  1  0
 44 30  1  0
 45  3  1  0
 45 81  1  0
 45 82  1  0
 45 83  1  0
 46  4  1  0
 46 84  1  0
 46 85  1  0
 46 86  1  0
 47 33  1  0
 47 87  1  0
 47 88  1  0
 48 34  1  0
 48 89  1  0
 48 90  1  0
 49 47  1  0
 49 91  1  0
 49 92  1  0
 49 93  1  0
 50 48  1  0
 50 94  1  0
 50 95  1  0
 50 96  1  0
M  END
> <Name>
CHEMBL144112

> <Clean Energy>
51.141899

> <chembl_id>
CHEMBL144112

> <chembl_pref_name>
None

> <efficacy>
1.62

> <Forcefield>
MMFF

> <ForcefieldBase>
MMFF

> <ForcefieldFFML>
<?xml version="1.0" encoding="UTF-8"?>
<!DOCTYPE ffml SYSTEM "Ffml.dtd">
<ffml version="1.0">
<forcefield name="MMFF" derivedFrom="MMFF" base="MMFF">
<atomTypes>
<atomType
name="C100"
element="C"
mass="12.011"
annotation=""/>
<atomType
name="O101"
element="O"
mass="16"
annotation=""/>
<atomType
name="H102"
element="H"
mass="1.008"
annotation=""/>
</atomTypes>
<parameters>
</parameters>
</forcefield>
</ffml>

> <Initial Potential Energy>
393.83954

> <Initial RMS Gradient>
46.75762

> <Minimization Criteria>
STEEPD> Minimization exiting with gradient tolerance ( 3.0000000) satisfied.

> <CHARMm Energy>
146.5097

> <Potential Energy>
146.5097

> <RMS Gradient>
0.01662

> <Bond Energy>
11.24857

> <Angle Energy>
23.34282

> <STRBend>
0.47569

> <Dihedral Energy>
11.87989

> <OOPLane>
0.04238

> <Van der Waals Energy>
99.69537

> <Electrostatic Energy>
-0.17502

> <Hydrogen Bond Energy>
0

> <Solvation Free Energy>
0

> <HasGasteigerCharges>
true

> <REMARK99>
REMARK  99  MacroMolecule created from Mol2 file
REMARK  99  CHEMBL144112
REMARK  99  PROTEIN
REMARK  99  GASTEIGER
REMARK  99
REMARK  99

$$$$
CHEMBL479207
  SciTegic05292516403D

 69 71  0  0  0  0            999 V2000
   -8.9495   -0.0324   -1.2867 C   0  0
   -7.7413    0.8889   -1.3973 C   0  0
   -7.3460    1.6378   -0.0981 C   0  0  1  0  0  0
   -8.0948    3.0171   -0.1193 C   0  0
   -9.4542    2.9192   -0.1661 O   0  0
   -7.6103    4.1400   -0.0867 O   0  0
   -7.7385    0.9800    1.2347 C   0  0
   -5.9258    1.9489   -0.1219 O   0  0
   -4.9218    1.0336    0.0695 C   0  0
   -3.6567    1.5921    0.2905 C   0  0
   -2.5225    0.7916    0.5327 C   0  0
   -5.0137   -0.3564    0.0528 C   0  0
   -3.8797   -1.1646    0.2919 C   0  0
   -2.6209   -0.6041    0.5543 C   0  0
   -1.4315   -1.4786    0.9272 C   0  0
   -0.3666   -1.6830   -0.1717 C   0  0
    0.7837   -2.4649    0.3166 N   0  0
    1.9240   -1.7619    0.8894 C   0  0
    3.0209   -1.5637   -0.1596 C   0  0
    4.2290   -0.8356    0.4316 C   0  0
    5.3341   -0.6520   -0.6099 C   0  0
    6.5473    0.0614   -0.0108 C   0  0
    7.6555    0.2433   -1.0473 C   0  0
    8.8644    0.9464   -0.4506 C   0  0
    0.7456   -3.8143    0.2431 C   0  0
    1.8212   -4.5012    0.7404 O   0  0
    1.5110   -5.8097    0.5304 C   0  0
    2.2782   -6.9215    0.8535 C   0  0
    1.7192   -8.1613    0.5190 C   0  0
    0.4665   -8.2527   -0.1018 C   0  0
   -0.2769   -7.1022   -0.4086 C   0  0
    0.2699   -5.8557   -0.0775 C   0  0
   -0.2110   -4.5813   -0.2437 N   0  0
   -9.1725   -0.4711   -2.2649 H   0  0
   -9.8431    0.5013   -0.9527 H   0  0
   -8.7567   -0.8575   -0.5943 H   0  0
   -6.9037    0.3023   -1.7872 H   0  0
   -7.9415    1.6216   -2.1912 H   0  0
   -9.7727    3.8498   -0.1639 H   0  0
   -7.3150    1.5423    2.0757 H   0  0
   -7.3717   -0.0446    1.3265 H   0  0
   -8.8239    0.9458    1.3773 H   0  0
   -3.5474    2.6745    0.2967 H   0  0
   -1.5732    1.2842    0.7336 H   0  0
   -5.9523   -0.8631   -0.1399 H   0  0
   -4.0013   -2.2470    0.2924 H   0  0
   -0.9586   -1.0387    1.8158 H   0  0
   -1.8002   -2.4587    1.2578 H   0  0
   -0.8220   -2.1640   -1.0473 H   0  0
   -0.0144   -0.7058   -0.5258 H   0  0
    1.6028   -0.7827    1.2671 H   0  0
    2.3183   -2.2994    1.7613 H   0  0
    3.3388   -2.5351   -0.5573 H   0  0
    2.6223   -0.9917   -1.0067 H   0  0
    3.9178    0.1440    0.8142 H   0  0
    4.6199   -1.4058    1.2831 H   0  0
    5.6392   -1.6312   -0.9984 H   0  0
    4.9481   -0.0732   -1.4578 H   0  0
    6.2426    1.0411    0.3770 H   0  0
    6.9308   -0.5165    0.8389 H   0  0
    7.9647   -0.7328   -1.4387 H   0  0
    7.2806    0.8288   -1.8947 H   0  0
    9.6446    1.0692   -1.2085 H   0  0
    9.2841    0.3679    0.3788 H   0  0
    8.5955    1.9393   -0.0759 H   0  0
    3.2453   -6.8291    1.3305 H   0  0
    2.2705   -9.0721    0.7450 H   0  0
    0.0607   -9.2315   -0.3512 H   0  0
   -1.2451   -7.1718   -0.8905 H   0  0
  1  2  1  0
  1 34  1  0
  1 35  1  0
  1 36  1  0
  2  3  1  0
  2 37  1  0
  2 38  1  0
  3  7  1  0
  3  8  1  0
  4  3  1  0
  4  5  1  0
  4  6  2  0
  5 39  1  0
  7 40  1  0
  7 41  1  0
  7 42  1  0
  9  8  1  0
 10  9  1  0
 10 43  1  0
 11 10  2  0
 11 14  1  0
 11 44  1  0
 12  9  2  0
 12 45  1  0
 13 12  1  0
 13 14  2  0
 13 46  1  0
 15 14  1  0
 15 16  1  0
 15 47  1  0
 15 48  1  0
 16 17  1  0
 16 49  1  0
 16 50  1  0
 18 17  1  0
 18 51  1  0
 18 52  1  0
 19 18  1  0
 19 53  1  0
 19 54  1  0
 20 19  1  0
 20 55  1  0
 20 56  1  0
 21 20  1  0
 21 57  1  0
 21 58  1  0
 22 21  1  0
 22 59  1  0
 22 60  1  0
 23 22  1  0
 23 61  1  0
 23 62  1  0
 24 23  1  0
 24 63  1  0
 24 64  1  0
 24 65  1  0
 25 17  1  0
 25 26  1  0
 25 33  2  0
 27 26  1  0
 28 27  1  0
 28 66  1  0
 29 28  2  0
 29 67  1  0
 30 29  1  0
 30 31  2  0
 30 68  1  0
 31 32  1  0
 31 69  1  0
 32 27  2  0
 32 33  1  0
M  END
> <Name>
CHEMBL479207

> <Clean Energy>
48.300201

> <chembl_id>
CHEMBL479207

> <chembl_pref_name>
None

> <efficacy>
1.1605

> <Forcefield>
MMFF

> <ForcefieldBase>
MMFF

> <ForcefieldFFML>
<?xml version="1.0" encoding="UTF-8"?>
<!DOCTYPE ffml SYSTEM "Ffml.dtd">
<ffml version="1.0">
<forcefield name="MMFF" derivedFrom="MMFF" base="MMFF">
<atomTypes>
<atomType
name="C100"
element="C"
mass="12.011"
annotation=""/>
<atomType
name="O101"
element="O"
mass="16"
annotation=""/>
<atomType
name="N102"
element="N"
mass="14.007"
annotation=""/>
<atomType
name="H103"
element="H"
mass="1.008"
annotation=""/>
</atomTypes>
<parameters>
</parameters>
</forcefield>
</ffml>

> <Initial Potential Energy>
138.08311

> <Initial RMS Gradient>
28.5017

> <Minimization Criteria>
STEEPD> Minimization exiting with gradient tolerance ( 3.0000000) satisfied.

> <CHARMm Energy>
26.11151

> <Potential Energy>
26.11151

> <RMS Gradient>
0.05264

> <Bond Energy>
8.16112

> <Angle Energy>
24.76771

> <STRBend>
1.23212

> <Dihedral Energy>
-10.12686

> <OOPLane>
0.03791

> <Van der Waals Energy>
51.92877

> <Electrostatic Energy>
-49.88926

> <Hydrogen Bond Energy>
0

> <Solvation Free Energy>
0

> <HasGasteigerCharges>
true

> <REMARK99>
REMARK  99  MacroMolecule created from Mol2 file
REMARK  99  CHEMBL479207
REMARK  99  PROTEIN
REMARK  99  GASTEIGER
REMARK  99
REMARK  99

$$$$
CHEMBL458866
  SciTegic05292516403D

 55 58  0  0  0  0            999 V2000
    4.9493   -6.7753   -1.3933 C   0  0
    4.7921   -7.8786   -0.5503 C   0  0
    5.8314   -8.2665    0.2946 C   0  0
    6.1264   -6.0234   -1.3530 C   0  0
    7.1600   -6.3938   -0.4914 C   0  0
    7.0016   -7.5166    0.3180 C   0  0
    8.0133   -7.9095    1.2161 O   0  0
    9.3038   -7.3871    1.1258 C   0  0
    9.5707   -6.5493   -0.0936 C   0  0  1  0  0  0
    8.4196   -5.5991   -0.3765 C   0  0
   10.8269   -5.7428    0.0726 C   0  0
   11.8965   -6.4273   -0.4139 O   0  0
   10.8675   -4.6221    0.5632 O   0  0
   13.1500   -5.7583   -0.2436 C   0  0
   10.1748   -7.6815    1.9434 O   0  0
    3.6661   -8.6533   -0.5058 O   0  0
    2.4313   -7.9303   -0.6345 C   0  0
    1.3652   -8.6695    0.1698 C   0  0
    0.0971   -7.9046    0.3373 C   0  0
   -0.1180   -6.7067    0.9857 C   0  0
   -1.4541   -6.4335    0.9340 O   0  0
   -2.0097   -7.5029    0.2703 C   0  0
   -1.1108   -8.3921   -0.1246 N   0  0
    0.7396   -5.7352    1.6895 C   0  0
   -3.4670   -7.5096    0.1349 C   0  0
   -4.2584   -6.4492    0.5973 C   0  0
   -5.6541   -6.4901    0.4804 C   0  0
   -6.2943   -7.5878   -0.0979 C   0  0
   -5.5185   -8.6471   -0.5678 C   0  0
   -4.1177   -8.6054   -0.4521 C   0  0
   -7.6599   -7.4982   -0.1406 O   0  0
   -8.3660   -8.6098   -0.6795 C   0  0
    4.1707   -6.4870   -2.0927 H   0  0
    5.7135   -9.1312    0.9408 H   0  0
    6.2260   -5.1534   -1.9983 H   0  0
    9.7028   -7.2312   -0.9448 H   0  0
    8.6122   -5.0436   -1.3028 H   0  0
    8.2905   -4.8642    0.4286 H   0  0
   13.9364   -6.4088   -0.6360 H   0  0
   13.3461   -5.5768    0.8177 H   0  0
   13.1599   -4.8204   -0.8074 H   0  0
    2.5362   -6.9067   -0.2543 H   0  0
    2.1494   -7.8855   -1.6930 H   0  0
    1.1604   -9.6359   -0.3077 H   0  0
    1.7616   -8.9151    1.1636 H   0  0
    0.1868   -5.2321    2.4889 H   0  0
    1.1031   -4.9747    0.9919 H   0  0
    1.6045   -6.2314    2.1403 H   0  0
   -3.8001   -5.5779    1.0604 H   0  0
   -6.2452   -5.6562    0.8507 H   0  0
   -5.9662   -9.5223   -1.0274 H   0  0
   -3.5297   -9.4459   -0.8196 H   0  0
   -9.4357   -8.3869   -0.6223 H   0  0
   -8.1810   -9.5159   -0.0932 H   0  0
   -8.1119   -8.7628   -1.7335 H   0  0
  1  2  2  0
  1 33  1  0
  2  3  1  0
  2 16  1  0
  3  6  2  0
  3 34  1  0
  4  1  1  0
  4 35  1  0
  5  4  2  0
  5  6  1  0
  5 10  1  0
  6  7  1  0
  7  8  1  0
  8  9  1  0
  8 15  2  0
  9 10  1  0
  9 11  1  0
  9 36  1  0
 10 37  1  0
 10 38  1  0
 11 12  1  0
 11 13  2  0
 12 14  1  0
 14 39  1  0
 14 40  1  0
 14 41  1  0
 16 17  1  0
 17 18  1  0
 17 42  1  0
 17 43  1  0
 18 19  1  0
 18 44  1  0
 18 45  1  0
 19 20  2  0
 20 21  1  0
 20 24  1  0
 21 22  1  0
 22 23  2  0
 22 25  1  0
 23 19  1  0
 24 46  1  0
 24 47  1  0
 24 48  1  0
 25 26  2  0
 26 27  1  0
 26 49  1  0
 27 28  2  0
 27 50  1  0
 28 29  1  0
 28 31  1  0
 29 30  2  0
 29 51  1  0
 30 25  1  0
 30 52  1  0
 31 32  1  0
 32 53  1  0
 32 54  1  0
 32 55  1  0
M  END
> <Name>
CHEMBL458866

> <Clean Energy>
34.421501

> <chembl_id>
CHEMBL458866

> <chembl_pref_name>
None

> <efficacy>
1.01

> <Forcefield>
MMFF

> <ForcefieldBase>
MMFF

> <ForcefieldFFML>
<?xml version="1.0" encoding="UTF-8"?>
<!DOCTYPE ffml SYSTEM "Ffml.dtd">
<ffml version="1.0">
<forcefield name="MMFF" derivedFrom="MMFF" base="MMFF">
<atomTypes>
<atomType
name="C100"
element="C"
mass="12.011"
annotation=""/>
<atomType
name="O101"
element="O"
mass="16"
annotation=""/>
<atomType
name="N102"
element="N"
mass="14.007"
annotation=""/>
<atomType
name="H103"
element="H"
mass="1.008"
annotation=""/>
</atomTypes>
<parameters>
</parameters>
</forcefield>
</ffml>

> <Initial Potential Energy>
91.34583

> <Initial RMS Gradient>
25.06431

> <Minimization Criteria>
CONJUG> Minimization exiting with gradient tolerance ( 0.0100000) satisfied.

> <CHARMm Energy>
21.97651

> <Potential Energy>
21.97651

> <RMS Gradient>
0.00939

> <Bond Energy>
4.94194

> <Angle Energy>
23.20582

> <STRBend>
-0.5445

> <Dihedral Energy>
3.62767

> <OOPLane>
0.24189

> <Van der Waals Energy>
56.07996

> <Electrostatic Energy>
-65.57628

> <Hydrogen Bond Energy>
0

> <Solvation Free Energy>
0

> <HasGasteigerCharges>
true

> <REMARK99>
REMARK  99  MacroMolecule created from Mol2 file
REMARK  99  CHEMBL458866
REMARK  99  PROTEIN
REMARK  99  GASTEIGER
REMARK  99
REMARK  99

$$$$
CHEMBL484462
  SciTegic05292516403D

 46 48  0  0  0  0            999 V2000
    8.2616  -23.2260    0.2435 C   0  0
    8.4477  -24.5025   -0.2859 C   0  0
    9.7338  -24.9608   -0.5995 C   0  0
   10.8342  -24.1091   -0.3975 C   0  0
   10.6463  -22.8169    0.1082 C   0  0
    9.3574  -22.3865    0.4438 C   0  0
   11.7759  -21.8735    0.2719 C   0  0
   13.1047  -22.1000   -0.3689 C   0  0
   11.6999  -20.7872    0.9766 N   0  0
   12.9546  -20.1357    0.8535 O   0  0
   13.5884  -20.6652   -0.3244 C   0  0  1  0  0  0
   15.0953  -20.5283   -0.3069 C   0  0
   15.8183  -20.7319   -1.4958 C   0  0
   17.2052  -20.5745   -1.5217 C   0  0
   17.8825  -20.2229   -0.3552 C   0  0
   17.1847  -20.0475    0.8384 C   0  0
   15.7968  -20.1975    0.8620 C   0  0
    9.9413  -26.3565   -1.1472 C   0  0
   10.2078  -27.3990   -0.0439 C   0  0  1  0  0  0
    8.8921  -28.1451    0.2411 C   0  0
   11.2948  -28.2088   -0.5003 O   0  0
   11.7115  -29.1878    0.4517 C   0  0
   12.9255  -29.9041   -0.1074 C   0  0
    8.0674  -27.4922    1.0997 O   0  0
    8.5803  -29.2291   -0.2330 O   0  0
   19.7576  -19.9761   -0.3931 Br  0  0
    7.2587  -22.8773    0.4847 H   0  0
    7.5743  -25.1298   -0.4632 H   0  0
   11.8312  -24.4661   -0.6465 H   0  0
    9.1983  -21.3855    0.8418 H   0  0
   13.6947  -22.7702    0.2649 H   0  0
   13.0429  -22.4902   -1.3870 H   0  0
   13.1932  -20.0901   -1.1732 H   0  0
   15.2926  -21.0148   -2.4070 H   0  0
   17.7552  -20.6978   -2.4534 H   0  0
   17.7151  -19.7677    1.7467 H   0  0
   15.2626  -20.0494    1.7995 H   0  0
    9.0699  -26.6355   -1.7546 H   0  0
   10.7800  -26.3220   -1.8560 H   0  0
   10.5388  -26.9189    0.8860 H   0  0
   11.9734  -28.6986    1.3962 H   0  0
   10.9125  -29.9128    0.6321 H   0  0
   13.2869  -30.6634    0.5917 H   0  0
   13.7345  -29.1938   -0.3072 H   0  0
   12.6830  -30.3873   -1.0597 H   0  0
    8.4244  -26.6467    1.4377 H   0  0
  1  2  2  0
  1 27  1  0
  2  3  1  0
  2 28  1  0
  3  4  2  0
  3 18  1  0
  4  5  1  0
  4 29  1  0
  5  6  2  0
  5  7  1  0
  6  1  1  0
  6 30  1  0
  7  8  1  0
  7  9  2  0
  8 11  1  0
  8 31  1  0
  8 32  1  0
  9 10  1  0
 10 11  1  0
 11 12  1  0
 11 33  1  0
 12 13  2  0
 13 14  1  0
 13 34  1  0
 14 15  2  0
 14 35  1  0
 15 16  1  0
 15 26  1  0
 16 17  2  0
 16 36  1  0
 17 12  1  0
 17 37  1  0
 18 19  1  0
 18 38  1  0
 18 39  1  0
 19 20  1  0
 19 21  1  0
 19 40  1  0
 20 24  1  0
 20 25  2  0
 21 22  1  0
 22 23  1  0
 22 41  1  0
 22 42  1  0
 23 43  1  0
 23 44  1  0
 23 45  1  0
 24 46  1  0
M  END
> <Name>
CHEMBL484462

> <Clean Energy>
46.808399

> <chembl_id>
CHEMBL484462

> <chembl_pref_name>
None

> <efficacy>
1.51

> <Forcefield>
MMFF

> <ForcefieldBase>
MMFF

> <ForcefieldFFML>
<?xml version="1.0" encoding="UTF-8"?>
<!DOCTYPE ffml SYSTEM "Ffml.dtd">
<ffml version="1.0">
<forcefield name="MMFF" derivedFrom="MMFF" base="MMFF">
<atomTypes>
<atomType
name="C100"
element="C"
mass="12.011"
annotation=""/>
<atomType
name="N101"
element="N"
mass="14.007"
annotation=""/>
<atomType
name="O102"
element="O"
mass="16"
annotation=""/>
<atomType
name="Br103"
element="Br"
mass="79.904"
annotation=""/>
<atomType
name="H104"
element="H"
mass="1.008"
annotation=""/>
</atomTypes>
<parameters>
</parameters>
</forcefield>
</ffml>

> <Initial Potential Energy>
240.70192

> <Initial RMS Gradient>
47.09618

> <Minimization Criteria>
CONJUG> Minimization exiting with gradient tolerance ( 0.0100000) satisfied.

> <CHARMm Energy>
95.35914

> <Potential Energy>
95.35914

> <RMS Gradient>
0.00989

> <Bond Energy>
5.11141

> <Angle Energy>
11.69441

> <STRBend>
0.84671

> <Dihedral Energy>
4.15219

> <OOPLane>
0.01103

> <Van der Waals Energy>
43.76787

> <Electrostatic Energy>
29.77551

> <Hydrogen Bond Energy>
0

> <Solvation Free Energy>
0

> <HasGasteigerCharges>
true

> <REMARK99>
REMARK  99  MacroMolecule created from Mol2 file
REMARK  99  CHEMBL484462
REMARK  99  PROTEIN
REMARK  99  GASTEIGER
REMARK  99
REMARK  99

$$$$
CHEMBL218117
  SciTegic05292516403D

 49 51  0  0  0  0            999 V2000
    2.7330    0.0073   -2.2900 C   0  0
    1.5607    0.4934   -1.7342 C   0  0
    1.4966    1.5923   -0.9522 N   0  0
    2.6640    2.2400   -0.7309 C   0  0
    3.8981    1.8363   -1.2389 C   0  0
    3.9179    0.6920   -2.0404 C   0  0
    0.4180   -0.2364   -1.9921 O   0  0
   -0.7934    0.3878   -1.5570 C   0  0
   -1.0945    0.0585   -0.0957 C   0  0
   -2.3679    0.6742    0.3479 C   0  0
   -2.5871    1.7947    1.1177 C   0  0
   -3.9369    1.9822    1.2108 O   0  0
   -4.4821    0.9516    0.4818 C   0  0
   -3.5751    0.1430   -0.0397 N   0  0
   -5.9341    0.9208    0.3613 C   0  0
   -6.7442    1.9154    0.9300 C   0  0
   -8.1298    1.8798    0.7718 C   0  0
   -8.7198    0.8482    0.0449 C   0  0
   -7.9309   -0.1509   -0.5196 C   0  0
   -6.5462   -0.1148   -0.3608 C   0  0
   -1.7178    2.7742    1.7905 C   0  0
    5.1714    2.5800   -0.9252 C   0  0
    5.7232    2.2951    0.4840 C   0  0  2  0  0  0
    6.9598    3.1418    0.7231 C   0  0
    7.2618    3.2994    2.0368 O   0  0
    7.6668    3.6195   -0.1524 O   0  0
    6.0974    0.8268    0.6879 C   0  0
    2.7192   -0.8855   -2.9047 H   0  0
    2.5721    3.1257   -0.1076 H   0  0
    4.8486    0.3263   -2.4683 H   0  0
   -0.7959    1.4680   -1.7569 H   0  0
   -1.5905   -0.0247   -2.1883 H   0  0
   -1.1500   -1.0305    0.0255 H   0  0
   -0.2736    0.3792    0.5550 H   0  0
   -6.2979    2.7323    1.4933 H   0  0
   -8.7482    2.6578    1.2120 H   0  0
   -9.7969    0.8230   -0.0840 H   0  0
   -8.3920   -0.9560   -1.0856 H   0  0
   -5.9391   -0.8984   -0.8108 H   0  0
   -2.2922    3.4249    2.4570 H   0  0
   -1.2109    3.4032    1.0523 H   0  0
   -0.9562    2.2654    2.3895 H   0  0
    5.9284    2.3408   -1.6846 H   0  0
    4.9809    3.6560   -1.0392 H   0  0
    4.9648    2.5882    1.2211 H   0  0
    6.5939    2.8885    2.6224 H   0  0
    6.5677    0.6704    1.6649 H   0  0
    6.8099    0.4909   -0.0737 H   0  0
    5.2162    0.1796    0.6443 H   0  0
  1  2  2  0
  1 28  1  0
  2  3  1  0
  2  7  1  0
  3  4  2  0
  4  5  1  0
  4 29  1  0
  5  6  2  0
  5 22  1  0
  6  1  1  0
  6 30  1  0
  7  8  1  0
  8  9  1  0
  8 31  1  0
  8 32  1  0
  9 10  1  0
  9 33  1  0
  9 34  1  0
 10 11  2  0
 11 12  1  0
 11 21  1  0
 12 13  1  0
 13 14  2  0
 13 15  1  0
 14 10  1  0
 15 16  2  0
 16 17  1  0
 16 35  1  0
 17 18  2  0
 17 36  1  0
 18 19  1  0
 18 37  1  0
 19 20  2  0
 19 38  1  0
 20 15  1  0
 20 39  1  0
 21 40  1  0
 21 41  1  0
 21 42  1  0
 22 23  1  0
 22 43  1  0
 22 44  1  0
 23 24  1  0
 23 27  1  0
 23 45  1  0
 24 25  1  0
 24 26  2  0
 25 46  1  0
 27 47  1  0
 27 48  1  0
 27 49  1  0
M  END
> <Name>
CHEMBL218117

> <Clean Energy>
31.7279

> <chembl_id>
CHEMBL218117

> <chembl_pref_name>
None

> <efficacy>
1.22826087

> <Forcefield>
MMFF

> <ForcefieldBase>
MMFF

> <ForcefieldFFML>
<?xml version="1.0" encoding="UTF-8"?>
<!DOCTYPE ffml SYSTEM "Ffml.dtd">
<ffml version="1.0">
<forcefield name="MMFF" derivedFrom="MMFF" base="MMFF">
<atomTypes>
<atomType
name="C100"
element="C"
mass="12.011"
annotation=""/>
<atomType
name="N101"
element="N"
mass="14.007"
annotation=""/>
<atomType
name="O102"
element="O"
mass="16"
annotation=""/>
<atomType
name="H103"
element="H"
mass="1.008"
annotation=""/>
</atomTypes>
<parameters>
</parameters>
</forcefield>
</ffml>

> <Initial Potential Energy>
89.92973

> <Initial RMS Gradient>
28.0484

> <Minimization Criteria>
CONJUG> Minimization exiting with gradient tolerance ( 0.0100000) satisfied.

> <CHARMm Energy>
8.9098

> <Potential Energy>
8.9098

> <RMS Gradient>
0.00988

> <Bond Energy>
3.48169

> <Angle Energy>
7.58947

> <STRBend>
0.79004

> <Dihedral Energy>
-3.57774

> <OOPLane>
0.05994

> <Van der Waals Energy>
44.56874

> <Electrostatic Energy>
-44.00234

> <Hydrogen Bond Energy>
0

> <Solvation Free Energy>
0

> <HasGasteigerCharges>
true

> <REMARK99>
REMARK  99  MacroMolecule created from Mol2 file
REMARK  99  CHEMBL218117
REMARK  99  PROTEIN
REMARK  99  GASTEIGER
REMARK  99
REMARK  99

$$$$
CHEMBL483032
  SciTegic05292516403D

 46 48  0  0  0  0            999 V2000
   -6.8827  -23.0951    0.1895 C   0  0
   -6.6892  -24.3959   -0.2728 C   0  0
   -5.4002  -24.8645   -0.5590 C   0  0
   -4.3026  -23.9969   -0.3996 C   0  0
   -4.4969  -22.6798    0.0364 C   0  0
   -5.7906  -22.2410    0.3463 C   0  0
   -3.3753  -21.7157    0.1534 C   0  0
   -2.0306  -21.9638   -0.4484 C   0  0
   -3.4757  -20.5865    0.7838 N   0  0
   -2.2279  -19.9273    0.6395 O   0  0
   -1.5652  -20.5203   -0.4919 C   0  0  1  0  0  0
   -0.0603  -20.3390   -0.4645 C   0  0
    0.7089  -20.7533   -1.5693 C   0  0
    2.0895  -20.5426   -1.5951 C   0  0
    2.7115  -19.9248   -0.5157 C   0  0
    1.9749  -19.5313    0.5949 C   0  0
    0.5930  -19.7302    0.6195 C   0  0
   -5.1917  -26.2840   -1.0433 C   0  0
   -4.9943  -27.2984    0.0999 C   0  0  1  0  0  0
   -6.3520  -27.9555    0.4165 C   0  0
   -3.9681  -28.1985   -0.3299 O   0  0
   -3.5996  -29.1547    0.6640 C   0  0
   -2.4417  -29.9729    0.1263 C   0  0
   -7.1159  -27.2411    1.2824 O   0  0
   -6.7406  -29.0239   -0.0364 O   0  0
    4.0328  -19.6996   -0.5495 F   0  0
   -7.8883  -22.7397    0.4099 H   0  0
   -7.5601  -25.0345   -0.4210 H   0  0
   -3.3035  -24.3602   -0.6297 H   0  0
   -5.9578  -21.2214    0.6905 H   0  0
   -1.4422  -22.5802    0.2392 H   0  0
   -2.0694  -22.4229   -1.4383 H   0  0
   -1.9564  -20.0104   -1.3831 H   0  0
    0.2257  -21.2356   -2.4182 H   0  0
    2.6926  -20.8241   -2.4552 H   0  0
    2.4813  -19.0481    1.4255 H   0  0
    0.0310  -19.3875    1.4875 H   0  0
   -6.0380  -26.5715   -1.6816 H   0  0
   -4.3209  -26.2899   -1.7132 H   0  0
   -4.6261  -26.8037    1.0077 H   0  0
   -3.2933  -28.6382    1.5802 H   0  0
   -4.4406  -29.8171    0.8891 H   0  0
   -2.1200  -30.7208    0.8565 H   0  0
   -1.5918  -29.3260   -0.1150 H   0  0
   -2.7273  -30.4827   -0.7998 H   0  0
   -6.7044  -26.4120    1.5983 H   0  0
  1  2  2  0
  1 27  1  0
  2  3  1  0
  2 28  1  0
  3  4  2  0
  3 18  1  0
  4  5  1  0
  4 29  1  0
  5  6  2  0
  5  7  1  0
  6  1  1  0
  6 30  1  0
  7  8  1  0
  7  9  2  0
  8 11  1  0
  8 31  1  0
  8 32  1  0
  9 10  1  0
 10 11  1  0
 11 12  1  0
 11 33  1  0
 12 13  2  0
 13 14  1  0
 13 34  1  0
 14 15  2  0
 14 35  1  0
 15 16  1  0
 15 26  1  0
 16 17  2  0
 16 36  1  0
 17 12  1  0
 17 37  1  0
 18 19  1  0
 18 38  1  0
 18 39  1  0
 19 20  1  0
 19 21  1  0
 19 40  1  0
 20 24  1  0
 20 25  2  0
 21 22  1  0
 22 23  1  0
 22 41  1  0
 22 42  1  0
 23 43  1  0
 23 44  1  0
 23 45  1  0
 24 46  1  0
M  END
> <Name>
CHEMBL483032

> <Clean Energy>
46.587101

> <chembl_id>
CHEMBL483032

> <chembl_pref_name>
None

> <efficacy>
1.58

> <Forcefield>
MMFF

> <ForcefieldBase>
MMFF

> <ForcefieldFFML>
<?xml version="1.0" encoding="UTF-8"?>
<!DOCTYPE ffml SYSTEM "Ffml.dtd">
<ffml version="1.0">
<forcefield name="MMFF" derivedFrom="MMFF" base="MMFF">
<atomTypes>
<atomType
name="C100"
element="C"
mass="12.011"
annotation=""/>
<atomType
name="N101"
element="N"
mass="14.007"
annotation=""/>
<atomType
name="O102"
element="O"
mass="16"
annotation=""/>
<atomType
name="F103"
element="F"
mass="18.998"
annotation=""/>
<atomType
name="H104"
element="H"
mass="1.008"
annotation=""/>
</atomTypes>
<parameters>
</parameters>
</forcefield>
</ffml>

> <Initial Potential Energy>
236.36424

> <Initial RMS Gradient>
45.79836

> <Minimization Criteria>
CONJUG> Minimization exiting with gradient tolerance ( 0.0100000) satisfied.

> <CHARMm Energy>
93.8713

> <Potential Energy>
93.8713

> <RMS Gradient>
0.00882

> <Bond Energy>
5.37259

> <Angle Energy>
12.07448

> <STRBend>
0.94435

> <Dihedral Energy>
3.89369

> <OOPLane>
0.02215

> <Van der Waals Energy>
42.48921

> <Electrostatic Energy>
29.07483

> <Hydrogen Bond Energy>
0

> <Solvation Free Energy>
0

> <HasGasteigerCharges>
true

> <REMARK99>
REMARK  99  MacroMolecule created from Mol2 file
REMARK  99  CHEMBL483032
REMARK  99  PROTEIN
REMARK  99  GASTEIGER
REMARK  99
REMARK  99

$$$$
CHEMBL2042802
  SciTegic05292516403D

 62 66  0  0  0  0            999 V2000
    7.1016    0.2833   -1.3021 O   0  0
    5.9892    1.1267   -1.2440 C   0  0
    6.3192    2.4193   -0.5508 C   0  0  2  0  0  0
    7.5756    1.9961    0.1598 C   0  0
    8.0502    0.7963   -0.4251 C   0  0
    9.3014    0.2494   -0.1141 C   0  0
   10.0600    0.9605    0.8438 C   0  0
    9.5544    2.1089    1.4843 C   0  0
    8.3171    2.6298    1.1334 C   0  0
    7.9167    3.7607    1.7661 O   0  0
   11.3091    0.5250    1.2321 O   0  0
   12.3253    1.4277    0.7822 C   0  0
    9.8344   -0.9698   -0.8271 C   0  0
   10.9668   -1.5471   -0.2912 N   0  0
   11.7304   -2.6236   -0.8927 C   0  0
   13.1041   -2.6535   -0.2489 C   0  0
   14.1210   -1.7436   -0.6889 C   0  0
   15.3362   -1.6815    0.0324 C   0  0
   15.5323   -2.5111    1.1403 C   0  0
   14.5481   -3.4034    1.5556 C   0  0
   13.3256   -3.4777    0.8840 C   0  0
   12.2718   -4.4169    1.4104 C   0  0
   16.3451   -0.7830   -0.3520 C   0  0
   16.1842    0.0588   -1.4497 C   0  0
   15.0028    0.0181   -2.1724 C   0  0
   13.9889   -0.8678   -1.7966 C   0  0
    9.3018   -1.3959   -1.8446 O   0  0
    5.1207    2.8560    0.2929 C   0  0
    3.7445    2.6370   -0.2897 C   0  0
    3.6262    1.6474   -1.2053 C   0  0
    4.7348    0.7746   -1.5609 C   0  0
    2.4517    1.3051   -1.8453 O   0  0
    2.5439    3.4675    0.0710 C   0  0
    2.6981    4.6137    1.0338 C   0  0
    1.4454    3.2163   -0.4352 O   0  0
    5.2585    3.4676    1.3553 O   0  0
    6.6418    3.5333   -1.5606 C   0  0
   10.1370    2.6048    2.2569 H   0  0
    6.9355    3.7997    1.7772 H   0  0
   13.2927    0.9425    0.9396 H   0  0
   12.3188    2.3536    1.3660 H   0  0
   12.2223    1.6456   -0.2868 H   0  0
   11.3153   -1.1596    0.5801 H   0  0
   11.1744   -3.5532   -0.7409 H   0  0
   11.7778   -2.4909   -1.9779 H   0  0
   16.4672   -2.4751    1.6968 H   0  0
   14.7488   -4.0359    2.4193 H   0  0
   12.6114   -4.9381    2.3122 H   0  0
   12.0358   -5.1806    0.6626 H   0  0
   11.3647   -3.8656    1.6774 H   0  0
   17.2823   -0.7415    0.2007 H   0  0
   16.9899    0.7284   -1.7425 H   0  0
   14.8626    0.6715   -3.0293 H   0  0
   13.0787   -0.8563   -2.3919 H   0  0
    4.5224   -0.1941   -2.0033 H   0  0
    1.7117    1.8955   -1.5510 H   0  0
    3.5022    5.2789    0.7096 H   0  0
    2.8796    4.2351    2.0423 H   0  0
    1.7720    5.1971    1.0479 H   0  0
    6.9572    4.4492   -1.0462 H   0  0
    5.7697    3.7938   -2.1717 H   0  0
    7.4491    3.2476   -2.2461 H   0  0
  1  2  1  0
  2  3  1  0
  2 31  2  0
  3  4  1  0
  3 28  1  0
  3 37  1  0
  4  5  2  0
  4  9  1  0
  5  1  1  0
  5  6  1  0
  6  7  2  0
  6 13  1  0
  7  8  1  0
  7 11  1  0
  8  9  2  0
  8 38  1  0
  9 10  1  0
 10 39  1  0
 11 12  1  0
 12 40  1  0
 12 41  1  0
 12 42  1  0
 13 14  1  0
 13 27  2  0
 14 15  1  0
 14 43  1  0
 15 16  1  0
 15 44  1  0
 15 45  1  0
 16 21  1  0
 17 16  2  0
 17 26  1  0
 18 17  1  0
 18 23  1  0
 19 18  2  0
 19 46  1  0
 20 19  1  0
 20 47  1  0
 21 20  2  0
 21 22  1  0
 22 48  1  0
 22 49  1  0
 22 50  1  0
 23 24  2  0
 23 51  1  0
 24 25  1  0
 24 52  1  0
 25 26  2  0
 25 53  1  0
 26 54  1  0
 28 29  1  0
 28 36  2  0
 29 30  2  0
 29 33  1  0
 30 31  1  0
 30 32  1  0
 31 55  1  0
 32 56  1  0
 33 34  1  0
 33 35  2  0
 34 57  1  0
 34 58  1  0
 34 59  1  0
 37 60  1  0
 37 61  1  0
 37 62  1  0
M  END
> <Name>
CHEMBL2042802

> <Clean Energy>
63.954601

> <chembl_id>
CHEMBL2042802

> <chembl_pref_name>
None

> <efficacy>
0.443396226

> <Forcefield>
MMFF

> <ForcefieldBase>
MMFF

> <ForcefieldFFML>
<?xml version="1.0" encoding="UTF-8"?>
<!DOCTYPE ffml SYSTEM "Ffml.dtd">
<ffml version="1.0">
<forcefield name="MMFF" derivedFrom="MMFF" base="MMFF">
<atomTypes>
<atomType
name="O100"
element="O"
mass="16"
annotation=""/>
<atomType
name="C101"
element="C"
mass="12.011"
annotation=""/>
<atomType
name="N102"
element="N"
mass="14.007"
annotation=""/>
<atomType
name="H103"
element="H"
mass="1.008"
annotation=""/>
</atomTypes>
<parameters>
</parameters>
</forcefield>
</ffml>

> <Initial Potential Energy>
299.23558

> <Initial RMS Gradient>
78.3061

> <Minimization Criteria>
STEEPD> Minimization exiting with gradient tolerance ( 3.0000000) satisfied.

> <CHARMm Energy>
62.86847

> <Potential Energy>
62.86847

> <RMS Gradient>
0.05632

> <Bond Energy>
11.64059

> <Angle Energy>
26.94307

> <STRBend>
0.36615

> <Dihedral Energy>
13.76803

> <OOPLane>
0.6392

> <Van der Waals Energy>
79.9399

> <Electrostatic Energy>
-70.42847

> <Hydrogen Bond Energy>
0

> <Solvation Free Energy>
0

> <HasGasteigerCharges>
true

> <REMARK99>
REMARK  99  MacroMolecule created from Mol2 file
REMARK  99  CHEMBL2042802
REMARK  99  PROTEIN
REMARK  99  GASTEIGER
REMARK  99
REMARK  99

$$$$
CHEMBL4174996
  SciTegic05292516403D

 70 73  0  0  0  0            999 V2000
   44.8482  -13.8318    2.1427 F   0  0
   46.5699  -14.9921    1.4511 F   0  0
   45.4354  -14.3742    1.0524 C   0  0
   34.8702  -13.1138    0.1340 C   0  0
   34.5969  -14.4516   -0.2063 C   0  0
   35.6147  -15.2331   -0.7776 C   0  0
   36.1291  -12.5444   -0.1127 C   0  0
   37.1159  -13.3303   -0.6939 C   0  0
   36.8592  -14.6641   -1.0085 C   0  0
   38.3011  -15.4466   -1.6851 S   0  0
   39.2369  -13.9527   -1.5451 C   0  0
   38.4317  -12.9457   -1.0215 N   0  0
   40.4140  -13.8612   -1.8623 O   0  0
   38.9799  -11.6223   -0.8184 C   0  0
   39.8630  -11.5275    0.4288 C   0  0
   40.4129  -10.2037    0.4928 O   0  0
   41.7805  -10.2103    0.4423 C   0  0
   42.5400  -10.6291    1.5325 C   0  0
   43.9353  -10.5591    1.4735 C   0  0
   44.5776  -10.0635    0.3281 C   0  0
   43.7978   -9.6405   -0.7580 C   0  0
   42.4029   -9.7028   -0.6952 C   0  0
   46.0880   -9.9751    0.2693 C   0  0
   46.7511  -11.1815   -0.4077 C   0  0  1  0  0  0
   48.2404  -10.8775   -0.6137 C   0  0
   46.6825  -12.3385    0.4571 O   0  0
   45.7270  -13.3162   -0.0086 C   0  0
   49.0436  -11.7176    0.0926 O   0  0
   48.6848   -9.9852   -1.3206 O   0  0
   33.3072  -15.1112    0.0536 C   0  0
   32.0868  -14.5645   -0.0831 C   0  0
   30.8600  -15.3777    0.0281 C   0  0
   29.6945  -14.8712    0.6202 C   0  0
   28.5207  -15.6423    0.6831 C   0  0
   28.5198  -16.9331    0.1412 C   0  0
   29.6670  -17.4434   -0.4694 C   0  0
   30.8183  -16.6601   -0.5321 C   0  0
   29.8058  -18.6754   -1.0466 O   0  0
   27.4488  -15.0338    1.2904 O   0  0
   28.6866  -19.5477   -0.9850 C   0  0
   26.2306  -15.7674    1.3583 C   0  0
   44.5995  -15.3206    0.5690 F   0  0
   34.0967  -12.5061    0.6022 H   0  0
   35.4328  -16.2721   -1.0420 H   0  0
   36.3217  -11.5135    0.1689 H   0  0
   39.5929  -11.3739   -1.6951 H   0  0
   38.1905  -10.8641   -0.7971 H   0  0
   39.2569  -11.6815    1.3289 H   0  0
   40.6334  -12.3098    0.4180 H   0  0
   42.0547  -10.9906    2.4344 H   0  0
   44.5189  -10.8826    2.3344 H   0  0
   44.2697   -9.2359   -1.6517 H   0  0
   41.8055   -9.3488   -1.5307 H   0  0
   46.3577   -9.0474   -0.2522 H   0  0
   46.4742   -9.8640    1.2915 H   0  0
   46.3274  -11.4063   -1.3943 H   0  0
   44.7884  -12.8289   -0.2893 H   0  0
   46.1452  -13.7990   -0.8985 H   0  0
   48.4562  -12.3378    0.5876 H   0  0
   33.4073  -16.1620    0.3245 H   0  0
   31.9495  -13.5214   -0.3515 H   0  0
   29.7028  -13.8687    1.0419 H   0  0
   27.6257  -17.5389    0.1868 H   0  0
   31.6924  -17.0656   -1.0388 H   0  0
   28.9675  -20.4882   -1.4686 H   0  0
   27.8336  -19.1336   -1.5325 H   0  0
   28.4180  -19.7739    0.0523 H   0  0
   25.4888  -15.1372    1.8583 H   0  0
   26.3522  -16.6771    1.9552 H   0  0
   25.8528  -15.9970    0.3566 H   0  0
  1  3  1  0
  3  2  1  0
  3 42  1  0
  4  5  2  0
  4 43  1  0
  5  6  1  0
  5 30  1  0
  6  9  2  0
  6 44  1  0
  7  4  1  0
  7 45  1  0
  8  7  2  0
  8  9  1  0
  9 10  1  0
 10 11  1  0
 11 12  1  0
 11 13  2  0
 12  8  1  0
 12 14  1  0
 14 15  1  0
 14 46  1  0
 14 47  1  0
 15 16  1  0
 15 48  1  0
 15 49  1  0
 16 17  1  0
 17 18  2  0
 18 19  1  0
 18 50  1  0
 19 20  2  0
 19 51  1  0
 20 21  1  0
 20 23  1  0
 21 22  2  0
 21 52  1  0
 22 17  1  0
 22 53  1  0
 23 24  1  0
 23 54  1  0
 23 55  1  0
 24 25  1  0
 24 26  1  0
 24 56  1  0
 25 28  1  0
 25 29  2  0
 26 27  1  0
 27  3  1  0
 27 57  1  0
 27 58  1  0
 28 59  1  0
 30 31  2  0
 30 60  1  0
 31 32  1  0
 31 61  1  0
 32 33  2  0
 33 34  1  0
 33 62  1  0
 34 35  2  0
 34 39  1  0
 35 36  1  0
 35 63  1  0
 36 37  2  0
 36 38  1  0
 37 32  1  0
 37 64  1  0
 38 40  1  0
 39 41  1  0
 40 65  1  0
 40 66  1  0
 40 67  1  0
 41 68  1  0
 41 69  1  0
 41 70  1  0
M  END
> <Name>
CHEMBL4174996

> <Clean Energy>
46.532001

> <chembl_id>
CHEMBL4174996

> <chembl_pref_name>
None

> <efficacy>
1.2

> <Forcefield>
MMFF

> <ForcefieldBase>
MMFF

> <ForcefieldFFML>
<?xml version="1.0" encoding="UTF-8"?>
<!DOCTYPE ffml SYSTEM "Ffml.dtd">
<ffml version="1.0">
<forcefield name="MMFF" derivedFrom="MMFF" base="MMFF">
<atomTypes>
<atomType
name="F100"
element="F"
mass="18.998"
annotation=""/>
<atomType
name="C101"
element="C"
mass="12.011"
annotation=""/>
<atomType
name="S102"
element="S"
mass="32.066"
annotation=""/>
<atomType
name="N103"
element="N"
mass="14.007"
annotation=""/>
<atomType
name="O104"
element="O"
mass="16"
annotation=""/>
<atomType
name="H105"
element="H"
mass="1.008"
annotation=""/>
</atomTypes>
<parameters>
</parameters>
</forcefield>
</ffml>

> <Initial Potential Energy>
245.61481

> <Initial RMS Gradient>
27.70331

> <Minimization Criteria>
CONJUG> Minimization exiting with gradient tolerance ( 0.0100000) satisfied.

> <CHARMm Energy>
114.31259

> <Potential Energy>
114.31259

> <RMS Gradient>
0.00946

> <Bond Energy>
7.3881

> <Angle Energy>
30.95098

> <STRBend>
0.60742

> <Dihedral Energy>
15.80028

> <OOPLane>
0.11198

> <Van der Waals Energy>
74.98205

> <Electrostatic Energy>
-15.52823

> <Hydrogen Bond Energy>
0

> <Solvation Free Energy>
0

> <HasGasteigerCharges>
true

> <REMARK99>
REMARK  99  MacroMolecule created from Mol2 file
REMARK  99  CHEMBL4174996
REMARK  99  PROTEIN
REMARK  99  GASTEIGER
REMARK  99
REMARK  99

$$$$
CHEMBL4160945
  SciTegic05292516403D

 71 74  0  0  0  0            999 V2000
   36.4612  -20.7440   -0.6493 C   0  0
   36.2404  -22.1035   -0.9380 C   0  0
   37.3107  -22.8842   -1.4029 C   0  0
   37.7336  -20.1663   -0.8038 C   0  0
   38.7797  -20.9608   -1.2545 C   0  0
   38.5613  -22.3053   -1.5487 C   0  0
   40.0567  -23.1022   -2.0657 S   0  0
   40.9779  -21.6099   -1.8424 C   0  0
   40.1231  -20.5827   -1.4493 N   0  0
   42.1871  -21.5365   -2.0072 O   0  0
   40.6657  -19.2808   -1.1192 C   0  0
   41.2844  -19.2607    0.2825 C   0  0
   42.0235  -18.0544    0.4985 O   0  0
   43.3877  -18.1816    0.4713 C   0  0
   44.0923  -17.3753    1.3636 C   0  0
   45.4905  -17.4108    1.4013 C   0  0
   46.2097  -18.2394    0.5292 C   0  0
   45.4951  -19.0268   -0.3809 C   0  0
   44.0953  -18.9984   -0.4096 C   0  0
   47.7273  -18.2444    0.5453 C   0  0
   48.3395  -19.5991    0.9400 C   0  0  2  0  0  0
   49.7773  -19.3647    1.4408 C   0  0
   48.3638  -20.4584   -0.2133 O   0  0
   48.2906  -21.8385    0.1457 C   0  0
   48.3768  -22.6635   -1.1227 C   0  0
   50.7543  -19.4402    0.4826 N   0  0
   50.0541  -19.0889    2.6037 O   0  0
   34.9281  -22.7596   -0.8180 C   0  0
   34.0031  -22.5320    0.1320 C   0  0
   32.7875  -23.3633    0.2571 C   0  0
   31.5564  -22.8065    0.6336 C   0  0
   30.4120  -23.6095    0.7852 C   0  0
   30.5093  -24.9880    0.5619 C   0  0
   31.7324  -25.5607    0.2079 C   0  0
   32.8581  -24.7492    0.0714 C   0  0
   31.9769  -26.8855   -0.0274 O   0  0
   29.2688  -22.9420    1.1531 O   0  0
   30.8709  -27.7719    0.0595 C   0  0
   28.0863  -23.7150    1.3296 C   0  0
   35.6383  -20.1178   -0.3100 H   0  0
   37.1776  -23.9374   -1.6333 H   0  0
   37.8742  -19.1141   -0.5739 H   0  0
   41.4352  -19.0370   -1.8614 H   0  0
   39.9079  -18.4975   -1.2236 H   0  0
   40.4768  -19.2752    1.0245 H   0  0
   41.8851  -20.1563    0.4876 H   0  0
   43.5514  -16.7187    2.0400 H   0  0
   46.0112  -16.7749    2.1136 H   0  0
   46.0203  -19.6639   -1.0903 H   0  0
   43.5927  -19.6116   -1.1491 H   0  0
   48.0744  -17.9439   -0.4522 H   0  0
   48.0727  -17.4663    1.2383 H   0  0
   47.7655  -20.0583    1.7554 H   0  0
   49.1176  -22.0970    0.8158 H   0  0
   47.3396  -22.0364    0.6522 H   0  0
   48.3223  -23.7323   -0.8977 H   0  0
   49.3140  -22.4604   -1.6514 H   0  0
   47.5623  -22.4040   -1.8071 H   0  0
   50.4830  -19.7206   -0.4553 H   0  0
   51.7303  -19.2941    0.7285 H   0  0
   34.7564  -23.5395   -1.5590 H   0  0
   34.1407  -21.7653    0.8889 H   0  0
   31.4900  -21.7342    0.8050 H   0  0
   29.6372  -25.6174    0.6709 H   0  0
   33.8072  -25.2219   -0.1741 H   0  0
   31.2297  -28.7796   -0.1712 H   0  0
   30.1006  -27.5163   -0.6757 H   0  0
   30.4584  -27.7894    1.0737 H   0  0
   27.2826  -23.0331    1.6235 H   0  0
   28.2118  -24.4488    2.1325 H   0  0
   27.7886  -24.1978    0.3931 H   0  0
  1  2  2  0
  1 40  1  0
  2  3  1  0
  2 28  1  0
  3  6  2  0
  3 41  1  0
  4  1  1  0
  4 42  1  0
  5  4  2  0
  5  6  1  0
  6  7  1  0
  7  8  1  0
  8  9  1  0
  8 10  2  0
  9  5  1  0
  9 11  1  0
 11 12  1  0
 11 43  1  0
 11 44  1  0
 12 13  1  0
 12 45  1  0
 12 46  1  0
 13 14  1  0
 14 15  2  0
 15 16  1  0
 15 47  1  0
 16 17  2  0
 16 48  1  0
 17 18  1  0
 17 20  1  0
 18 19  2  0
 18 49  1  0
 19 14  1  0
 19 50  1  0
 20 21  1  0
 20 51  1  0
 20 52  1  0
 21 22  1  0
 21 23  1  0
 21 53  1  0
 22 26  1  0
 22 27  2  0
 23 24  1  0
 24 25  1  0
 24 54  1  0
 24 55  1  0
 25 56  1  0
 25 57  1  0
 25 58  1  0
 26 59  1  0
 26 60  1  0
 28 29  2  0
 28 61  1  0
 29 30  1  0
 29 62  1  0
 30 31  2  0
 31 32  1  0
 31 63  1  0
 32 33  2  0
 32 37  1  0
 33 34  1  0
 33 64  1  0
 34 35  2  0
 34 36  1  0
 35 30  1  0
 35 65  1  0
 36 38  1  0
 37 39  1  0
 38 66  1  0
 38 67  1  0
 38 68  1  0
 39 69  1  0
 39 70  1  0
 39 71  1  0
M  END
> <Name>
CHEMBL4160945

> <Clean Energy>
33.557201

> <chembl_id>
CHEMBL4160945

> <chembl_pref_name>
None

> <efficacy>
1.26

> <Forcefield>
MMFF

> <ForcefieldBase>
MMFF

> <ForcefieldFFML>
<?xml version="1.0" encoding="UTF-8"?>
<!DOCTYPE ffml SYSTEM "Ffml.dtd">
<ffml version="1.0">
<forcefield name="MMFF" derivedFrom="MMFF" base="MMFF">
<atomTypes>
<atomType
name="C100"
element="C"
mass="12.011"
annotation=""/>
<atomType
name="S101"
element="S"
mass="32.066"
annotation=""/>
<atomType
name="N102"
element="N"
mass="14.007"
annotation=""/>
<atomType
name="O103"
element="O"
mass="16"
annotation=""/>
<atomType
name="H104"
element="H"
mass="1.008"
annotation=""/>
</atomTypes>
<parameters>
</parameters>
</forcefield>
</ffml>

> <Initial Potential Energy>
193.17053

> <Initial RMS Gradient>
29.22043

> <Minimization Criteria>
CONJUG> Minimization exiting with gradient tolerance ( 0.0100000) satisfied.

> <CHARMm Energy>
63.42773

> <Potential Energy>
63.42773

> <RMS Gradient>
0.00983

> <Bond Energy>
7.24637

> <Angle Energy>
33.31977

> <STRBend>
0.47854

> <Dihedral Energy>
11.43934

> <OOPLane>
0.17633

> <Van der Waals Energy>
75.39881

> <Electrostatic Energy>
-64.63145

> <Hydrogen Bond Energy>
0

> <Solvation Free Energy>
0

> <HasGasteigerCharges>
true

> <REMARK99>
REMARK  99  MacroMolecule created from Mol2 file
REMARK  99  CHEMBL4160945
REMARK  99  PROTEIN
REMARK  99  GASTEIGER
REMARK  99
REMARK  99

$$$$
CHEMBL221184
  SciTegic05292516403D

 57 60  0  0  0  0            999 V2000
    7.4810  -13.0274    1.3822 C   0  0
    6.7476  -11.7357    1.6622 C   0  0
    7.3584  -10.7718    0.6388 C   0  0  1  0  0  0
    7.9356  -11.5903   -0.4237 O   0  0
    7.6456  -12.9676   -0.1173 C   0  0
    2.7045  -10.3994    0.1682 C   0  0
    2.5698  -11.1673   -0.9795 C   0  0
    3.6158  -11.4363   -1.7941 N   0  0
    4.8238  -10.9305   -1.4603 C   0  0
    5.0542  -10.1645   -0.3267 C   0  0
    3.9590   -9.8887    0.4922 C   0  0
    1.4036  -11.7486   -1.3937 O   0  0
    0.1957  -11.2730   -0.7985 C   0  0
   -0.9788  -11.8565   -1.5786 C   0  0
   -2.2945  -11.2967   -1.1668 C   0  0
   -2.7930  -10.0234   -1.3448 C   0  0
   -4.0577   -9.9930   -0.8355 O   0  0
   -4.2892  -11.2725   -0.3951 C   0  0
   -3.2506  -12.0775   -0.5481 N   0  0
   -5.6191  -11.5482    0.1480 C   0  0
   -6.5892  -10.5412    0.2728 C   0  0
   -7.8616  -10.8262    0.7787 C   0  0
   -8.1875  -12.1248    1.1820 C   0  0
   -7.2345  -13.1384    1.0479 C   0  0
   -5.9611  -12.8499    0.5419 C   0  0
   -2.2856   -8.7751   -1.9398 C   0  0
    6.4329   -9.6902    0.0466 C   0  0
    8.5274  -10.0192    1.2972 C   0  0
    9.7090  -10.2423    0.6740 O   0  0
    8.4089   -9.2835    2.2660 O   0  0
   -9.5626  -12.4380    1.6920 C   0  0
    8.4618  -13.0112    1.8716 H   0  0
    6.9409  -13.9165    1.7176 H   0  0
    5.6811  -11.9076    1.4920 H   0  0
    6.8616  -11.4134    2.7019 H   0  0
    6.7237  -13.2488   -0.6371 H   0  0
    8.4611  -13.5999   -0.4782 H   0  0
    1.8750  -10.1968    0.8332 H   0  0
    5.6288  -11.1811   -2.1479 H   0  0
    4.0740   -9.2978    1.3982 H   0  0
    0.1387  -11.5980    0.2476 H   0  0
    0.1626  -10.1772   -0.8422 H   0  0
   -0.8317  -11.6769   -2.6514 H   0  0
   -0.9819  -12.9478   -1.4653 H   0  0
   -6.3594   -9.5217   -0.0304 H   0  0
   -8.5965  -10.0271    0.8535 H   0  0
   -7.4731  -14.1605    1.3346 H   0  0
   -5.2347  -13.6553    0.4473 H   0  0
   -3.0888   -8.2272   -2.4420 H   0  0
   -1.5056   -8.9813   -2.6789 H   0  0
   -1.8615   -8.1303   -1.1642 H   0  0
    6.8966   -9.2585   -0.8511 H   0  0
    6.3252   -8.8541    0.7507 H   0  0
    9.5584  -10.8535   -0.0844 H   0  0
   -9.5401  -13.2859    2.3846 H   0  0
  -10.2252  -12.6821    0.8560 H   0  0
   -9.9793  -11.5849    2.2377 H   0  0
  1  2  1  0
  1 32  1  0
  1 33  1  0
  2  3  1  0
  2 34  1  0
  2 35  1  0
  3  4  1  0
  3 28  1  0
  4  5  1  0
  5  1  1  0
  5 36  1  0
  5 37  1  0
  6  7  2  0
  6 38  1  0
  7  8  1  0
  7 12  1  0
  8  9  2  0
  9 10  1  0
  9 39  1  0
 10 11  2  0
 10 27  1  0
 11  6  1  0
 11 40  1  0
 12 13  1  0
 13 14  1  0
 13 41  1  0
 13 42  1  0
 14 15  1  0
 14 43  1  0
 14 44  1  0
 15 16  2  0
 16 17  1  0
 16 26  1  0
 17 18  1  0
 18 19  2  0
 18 20  1  0
 19 15  1  0
 20 21  2  0
 21 22  1  0
 21 45  1  0
 22 23  2  0
 22 46  1  0
 23 24  1  0
 23 31  1  0
 24 25  2  0
 24 47  1  0
 25 20  1  0
 25 48  1  0
 26 49  1  0
 26 50  1  0
 26 51  1  0
 27  3  1  0
 27 52  1  0
 27 53  1  0
 28 29  1  0
 28 30  2  0
 29 54  1  0
 31 55  1  0
 31 56  1  0
 31 57  1  0
M  END
> <Name>
CHEMBL221184

> <Clean Energy>
76.743202

> <chembl_id>
CHEMBL221184

> <chembl_pref_name>
None

> <efficacy>
1.043478261

> <Forcefield>
MMFF

> <ForcefieldBase>
MMFF

> <ForcefieldFFML>
<?xml version="1.0" encoding="UTF-8"?>
<!DOCTYPE ffml SYSTEM "Ffml.dtd">
<ffml version="1.0">
<forcefield name="MMFF" derivedFrom="MMFF" base="MMFF">
<atomTypes>
<atomType
name="C100"
element="C"
mass="12.011"
annotation=""/>
<atomType
name="O101"
element="O"
mass="16"
annotation=""/>
<atomType
name="N102"
element="N"
mass="14.007"
annotation=""/>
<atomType
name="H103"
element="H"
mass="1.008"
annotation=""/>
</atomTypes>
<parameters>
</parameters>
</forcefield>
</ffml>

> <Initial Potential Energy>
194.69715

> <Initial RMS Gradient>
29.85824

> <Minimization Criteria>
STEEPD> Minimization exiting with gradient tolerance ( 3.0000000) satisfied.

> <CHARMm Energy>
72.56085

> <Potential Energy>
72.56085

> <RMS Gradient>
0.03548

> <Bond Energy>
5.18507

> <Angle Energy>
13.83962

> <STRBend>
0.7472

> <Dihedral Energy>
1.7759

> <OOPLane>
0.05414

> <Van der Waals Energy>
50.37344

> <Electrostatic Energy>
0.58547

> <Hydrogen Bond Energy>
0

> <Solvation Free Energy>
0

> <HasGasteigerCharges>
true

> <REMARK99>
REMARK  99  MacroMolecule created from Mol2 file
REMARK  99  CHEMBL221184
REMARK  99  PROTEIN
REMARK  99  GASTEIGER
REMARK  99
REMARK  99

$$$$
CHEMBL3393178
  SciTegic05292516403D

 46 48  0  0  0  0            999 V2000
    1.7702   -1.0257    0.5247 C   0  0
    0.4849   -0.3470    0.3474 C   0  0
    0.4882    1.0460    0.2471 C   0  0
   -0.6795    1.7000   -0.1365 C   0  0
   -1.8380    0.9517   -0.3773 C   0  0
   -1.8399   -0.4380   -0.2183 C   0  0
   -0.6716   -1.0975    0.1443 C   0  0
    2.0812   -1.7045    1.4831 O   0  0
    2.5478   -0.8311   -0.5700 O   0  0
   -1.5700    3.9210   -0.7951 C   0  0
   -1.3917    5.3648   -0.4922 C   0  0
   -2.5083    6.0800   -0.0069 C   0  0
   -2.3281    7.3980    0.4018 C   0  0
   -1.0757    7.9981    0.2942 C   0  0
    0.0217    7.3036   -0.2151 C   0  0
   -0.1306    5.9758   -0.6085 C   0  0
   -2.5651    3.5685   -1.4189 O   0  0
   -0.6210    3.0996   -0.2334 N   0  0
   -4.9490    5.9061    0.5439 C   0  0
   -6.0984    4.9828    0.3761 C   0  0
   -7.3317    5.5336    0.0160 C   0  0
   -8.4359    4.7065   -0.1892 C   0  0
   -8.3223    3.3216   -0.0274 C   0  0
   -7.0896    2.7805    0.3716 C   0  0
   -5.9784    3.6033    0.5687 C   0  0
   -5.1550    7.0022    1.0502 O   0  0
   -3.7624    5.4302    0.0442 N   0  0
   -9.5075    2.4135   -0.2505 C   0  0
  -10.4476    2.9285   -1.0836 F   0  0
   -9.1134    1.2271   -0.8020 F   0  0
  -10.1385    2.0960    0.9094 F   0  0
   -0.8925    9.6305    0.7939 Cl  0  0
    1.4157    1.5892    0.4275 H   0  0
   -2.7725    1.4246   -0.6650 H   0  0
   -2.7548   -0.9992   -0.3931 H   0  0
   -0.6641   -2.1801    0.2375 H   0  0
    2.0748   -0.2899   -1.2412 H   0  0
   -3.1481    7.9818    0.8007 H   0  0
    0.9911    7.7937   -0.3008 H   0  0
    0.7251    5.4387   -1.0103 H   0  0
    0.1718    3.5434    0.2065 H   0  0
   -7.4388    6.6111   -0.1115 H   0  0
   -9.3892    5.1502   -0.4774 H   0  0
   -6.9899    1.7057    0.5227 H   0  0
   -5.0382    3.1595    0.8855 H   0  0
   -3.7937    4.5242   -0.4268 H   0  0
  1  2  1  0
  1  8  2  0
  1  9  1  0
  2  3  1  0
  2  7  2  0
  3  4  2  0
  3 33  1  0
  4  5  1  0
  4 18  1  0
  5  6  2  0
  5 34  1  0
  6  7  1  0
  6 35  1  0
  7 36  1  0
  9 37  1  0
 10 11  1  0
 10 17  2  0
 10 18  1  0
 11 12  1  0
 11 16  2  0
 12 13  2  0
 12 27  1  0
 13 14  1  0
 13 38  1  0
 14 15  2  0
 14 32  1  0
 15 16  1  0
 15 39  1  0
 16 40  1  0
 18 41  1  0
 19 20  1  0
 19 26  2  0
 19 27  1  0
 20 21  1  0
 20 25  2  0
 21 22  2  0
 21 42  1  0
 22 23  1  0
 22 43  1  0
 23 24  2  0
 23 28  1  0
 24 25  1  0
 24 44  1  0
 25 45  1  0
 27 46  1  0
 28 29  1  0
 28 30  1  0
 28 31  1  0
M  END
> <Name>
CHEMBL3393178

> <Clean Energy>
12.4209

> <chembl_id>
CHEMBL3393178

> <chembl_pref_name>
None

> <efficacy>
3.988603989

> <Forcefield>
MMFF

> <ForcefieldBase>
MMFF

> <ForcefieldFFML>
<?xml version="1.0" encoding="UTF-8"?>
<!DOCTYPE ffml SYSTEM "Ffml.dtd">
<ffml version="1.0">
<forcefield name="MMFF" derivedFrom="MMFF" base="MMFF">
<atomTypes>
<atomType
name="C100"
element="C"
mass="12.011"
annotation=""/>
<atomType
name="O101"
element="O"
mass="16"
annotation=""/>
<atomType
name="N102"
element="N"
mass="14.007"
annotation=""/>
<atomType
name="F103"
element="F"
mass="18.998"
annotation=""/>
<atomType
name="Cl104"
element="Cl"
mass="35.453"
annotation=""/>
<atomType
name="H105"
element="H"
mass="1.008"
annotation=""/>
</atomTypes>
<parameters>
</parameters>
</forcefield>
</ffml>

> <Initial Potential Energy>
149.46071

> <Initial RMS Gradient>
33.79474

> <Minimization Criteria>
STEEPD> Minimization exiting with gradient tolerance ( 3.0000000) satisfied.

> <CHARMm Energy>
71.08446

> <Potential Energy>
71.08446

> <RMS Gradient>
0.028

> <Bond Energy>
5.02706

> <Angle Energy>
10.16901

> <STRBend>
1.01891

> <Dihedral Energy>
19.56223

> <OOPLane>
0.39212

> <Van der Waals Energy>
67.08539

> <Electrostatic Energy>
-32.17025

> <Hydrogen Bond Energy>
0

> <Solvation Free Energy>
0

> <HasGasteigerCharges>
true

> <REMARK99>
REMARK  99  MacroMolecule created from Mol2 file
REMARK  99  CHEMBL3393178
REMARK  99  PROTEIN
REMARK  99  GASTEIGER
REMARK  99
REMARK  99

$$$$
CHEMBL502521
  SciTegic05292516403D

 70 73  0  0  0  0            999 V2000
    8.0130  -28.6675   -0.0159 C   0  0
    8.4798  -29.9368    0.3357 C   0  0
    9.8050  -30.3173    0.0841 C   0  0
   10.6988  -29.4329   -0.5378 C   0  0
   10.2290  -28.1576   -0.8876 C   0  0
    8.8971  -27.7806   -0.6346 C   0  0
   12.1430  -29.8187   -0.7825 C   0  0
   12.6660  -29.2555   -1.9099 F   0  0
   12.3400  -31.1611   -0.9175 F   0  0
   12.9612  -29.4257    0.2353 F   0  0
    6.6974  -28.4262    0.2948 O   0  0
    6.2409  -27.0781    0.1477 C   0  0
    4.8200  -26.9228    0.6659 C   0  0
    4.4947  -25.8734    1.5228 C   0  0
    3.1722  -25.6749    1.9341 C   0  0
    2.1136  -26.4982    1.4895 C   0  0
    2.4504  -27.6236    0.7089 C   0  0
    3.7915  -27.7943    0.2815 C   0  0
    0.5220  -26.0358    2.1637 S   0  0
   -0.3792  -25.0762    0.9303 C   0  0
   -2.2976  -23.5769   -0.5095 C   0  0
   -2.5653  -24.8942   -0.1604 C   0  0
   -1.6284  -25.6200    0.5766 C   0  0
   -3.2491  -22.8383   -1.1790 O   0  0
   -4.3175  -22.4719   -0.2854 C   0  0
   -5.2280  -21.4393   -0.9138 C   0  0
   -4.8282  -20.9774   -2.1274 O   0  0
   -6.2328  -20.9987   -0.3672 O   0  0
    1.6758  -28.6699    0.2730 O   0  0
    0.4241  -28.9384    0.9012 C   0  0
   -0.0322  -30.2822    0.5010 C   0  0
   -0.7812  -21.5790   -0.6525 C   0  0
   -1.0513  -23.0013   -0.2073 C   0  0
   -0.0680  -23.7609    0.4969 C   0  0
    1.2622  -23.1210    0.8372 C   0  0
    1.5626  -21.8056    0.1222 C   0  0
    0.3437  -20.9061    0.1220 C   0  0
   -0.4753  -31.3396    0.1391 C   0  0
   -1.0771  -32.5896   -0.3446 C   0  0  2  0  0  0
   -0.1722  -33.2949   -1.3414 C   0  0
   -2.3086  -32.2448   -0.9842 O   0  0
    7.7997  -30.6359    0.8188 H   0  0
   10.1373  -31.3098    0.3843 H   0  0
   10.9025  -27.4441   -1.3631 H   0  0
    8.5956  -26.7815   -0.9350 H   0  0
    6.9024  -26.4053    0.7079 H   0  0
    6.2434  -26.7942   -0.9119 H   0  0
    5.2722  -25.2037    1.8849 H   0  0
    2.9653  -24.8379    2.6057 H   0  0
    4.0458  -28.6588   -0.3370 H   0  0
   -3.5100  -25.3602   -0.4226 H   0  0
   -1.9119  -26.6166    0.9103 H   0  0
   -4.9276  -23.3544   -0.0640 H   0  0
   -3.9104  -22.0337    0.6338 H   0  0
   -4.0427  -21.5073   -2.4018 H   0  0
    0.5233  -28.9150    1.9914 H   0  0
   -0.3155  -28.2169    0.5532 H   0  0
   -0.5345  -21.5984   -1.7215 H   0  0
   -1.6804  -20.9637   -0.5323 H   0  0
    1.2985  -22.9534    1.9203 H   0  0
    2.0657  -23.8023    0.5536 H   0  0
    2.4072  -21.3061    0.6103 H   0  0
    1.8686  -22.0078   -0.9125 H   0  0
    0.5841  -19.9416   -0.3388 H   0  0
    0.0278  -20.7036    1.1530 H   0  0
   -1.3047  -33.2506    0.4983 H   0  0
   -0.6473  -34.2104   -1.7100 H   0  0
    0.7908  -33.5585   -0.8919 H   0  0
    0.0186  -32.6652   -2.2183 H   0  0
   -2.7188  -33.0929   -1.2464 H   0  0
  1  2  2  0
  1 11  1  0
  2  3  1  0
  2 42  1  0
  3  4  2  0
  3 43  1  0
  4  5  1  0
  4  7  1  0
  5  6  2  0
  5 44  1  0
  6  1  1  0
  6 45  1  0
  7  8  1  0
  7  9  1  0
  7 10  1  0
 11 12  1  0
 12 13  1  0
 12 46  1  0
 12 47  1  0
 13 14  2  0
 14 15  1  0
 14 48  1  0
 15 16  2  0
 15 49  1  0
 16 17  1  0
 16 19  1  0
 17 18  2  0
 17 29  1  0
 18 13  1  0
 18 50  1  0
 19 20  1  0
 20 34  2  0
 21 22  1  0
 21 24  1  0
 22 23  2  0
 22 51  1  0
 23 20  1  0
 23 52  1  0
 24 25  1  0
 25 26  1  0
 25 53  1  0
 25 54  1  0
 26 27  1  0
 26 28  2  0
 27 55  1  0
 29 30  1  0
 30 31  1  0
 30 56  1  0
 30 57  1  0
 31 38  3  0
 32 33  1  0
 32 37  1  0
 32 58  1  0
 32 59  1  0
 33 21  2  0
 33 34  1  0
 34 35  1  0
 35 36  1  0
 35 60  1  0
 35 61  1  0
 36 37  1  0
 36 62  1  0
 36 63  1  0
 37 64  1  0
 37 65  1  0
 38 39  1  0
 39 40  1  0
 39 41  1  0
 39 66  1  0
 40 67  1  0
 40 68  1  0
 40 69  1  0
 41 70  1  0
M  END
> <Name>
CHEMBL502521

> <Clean Energy>
267.790985

> <chembl_id>
CHEMBL502521

> <chembl_pref_name>
None

> <efficacy>
0.99

> <Forcefield>
MMFF

> <ForcefieldBase>
MMFF

> <ForcefieldFFML>
<?xml version="1.0" encoding="UTF-8"?>
<!DOCTYPE ffml SYSTEM "Ffml.dtd">
<ffml version="1.0">
<forcefield name="MMFF" derivedFrom="MMFF" base="MMFF">
<atomTypes>
<atomType
name="C100"
element="C"
mass="12.011"
annotation=""/>
<atomType
name="F101"
element="F"
mass="18.998"
annotation=""/>
<atomType
name="O102"
element="O"
mass="16"
annotation=""/>
<atomType
name="S103"
element="S"
mass="32.066"
annotation=""/>
<atomType
name="H104"
element="H"
mass="1.008"
annotation=""/>
</atomTypes>
<parameters>
</parameters>
</forcefield>
</ffml>

> <Initial Potential Energy>
740.39338

> <Initial RMS Gradient>
66.33949

> <Minimization Criteria>
STEEPD> Minimization exiting with gradient tolerance ( 3.0000000) satisfied.

> <CHARMm Energy>
101.28321

> <Potential Energy>
101.28321

> <RMS Gradient>
0.03931

> <Bond Energy>
9.84146

> <Angle Energy>
31.00791

> <STRBend>
1.02746

> <Dihedral Energy>
7.6807

> <OOPLane>
0.34245

> <Van der Waals Energy>
71.58509

> <Electrostatic Energy>
-20.20186

> <Hydrogen Bond Energy>
0

> <Solvation Free Energy>
0

> <HasGasteigerCharges>
true

> <REMARK99>
REMARK  99  MacroMolecule created from Mol2 file
REMARK  99  CHEMBL502521
REMARK  99  PROTEIN
REMARK  99  GASTEIGER
REMARK  99
REMARK  99

$$$$
CHEMBL3597415
  SciTegic05292516403D

 54 57  0  0  0  0            999 V2000
   -2.2931    0.6386   -0.1294 C   0  0
   -2.5208   -0.7217    0.0768 C   0  0
   -1.4695   -1.6408    0.1185 C   0  0
   -0.9841    1.1148   -0.2895 C   0  0
    0.1019    0.2111   -0.2423 C   0  0
   -0.1739   -1.1425   -0.0470 C   0  0
    1.0265   -1.8089   -0.0636 N   0  0
    2.0521   -0.9266   -0.2583 C   0  0
    1.5262    0.3490   -0.3554 C   0  0
    2.3076    1.6135   -0.5597 C   0  0
    3.5064    1.6895    0.3667 C   0  0
    3.1746    1.7993    1.6776 O   0  0
    4.6722    1.6198   -0.0034 O   0  0
   -3.4307    1.4035   -0.1484 O   0  0
   -3.2642    2.7893   -0.4346 C   0  0
   -4.6222    3.4731   -0.3445 C   0  0
   -4.4908    4.9555   -0.6632 C   0  0
   -5.7345    5.6039   -0.3827 O   0  0
   -5.6082    6.9493   -0.1515 C   0  0
   -6.4744    7.4876    0.8010 C   0  0
   -6.4043    8.8425    1.1321 C   0  0
   -5.4715    9.6663    0.5042 C   0  0
   -4.6148    9.1256   -0.4535 C   0  0
   -4.7001    7.7801   -0.8095 C   0  0
   -3.7069    9.9173   -1.1134 O   0  0
   -2.6194   10.3684   -0.3957 C   0  0
   -2.0255   11.5420   -0.8682 C   0  0
   -0.9006   12.0729   -0.2306 C   0  0
   -0.3573   11.4085    0.8682 C   0  0
   -0.9363   10.2326    1.3391 C   0  0
   -2.0681    9.7108    0.7064 C   0  0
    1.0313   12.0520    1.6524 Cl  0  0
   -3.5427   -1.0737    0.2007 H   0  0
   -1.6602   -2.6988    0.2691 H   0  0
   -0.7747    2.1630   -0.4561 H   0  0
    1.1253   -2.8083    0.0457 H   0  0
    3.0748   -1.2810   -0.3053 H   0  0
    2.6684    1.6558   -1.5939 H   0  0
    1.6936    2.5058   -0.3988 H   0  0
    2.2066    1.8619    1.8144 H   0  0
   -2.5914    3.2467    0.3012 H   0  0
   -2.8538    2.9139   -1.4442 H   0  0
   -5.3402    2.9990   -1.0249 H   0  0
   -5.0465    3.3336    0.6580 H   0  0
   -3.6854    5.3797   -0.0487 H   0  0
   -4.2449    5.0837   -1.7240 H   0  0
   -7.2017    6.8471    1.2943 H   0  0
   -7.0830    9.2554    1.8741 H   0  0
   -5.4245   10.7235    0.7509 H   0  0
   -4.0409    7.4039   -1.5849 H   0  0
   -2.4517   12.0523   -1.7294 H   0  0
   -0.4634   13.0030   -0.5913 H   0  0
   -0.5042    9.6991    2.1827 H   0  0
   -2.4819    8.7742    1.0719 H   0  0
  1  2  2  0
  1 14  1  0
  2  3  1  0
  2 33  1  0
  3  6  2  0
  3 34  1  0
  4  1  1  0
  4 35  1  0
  5  4  2  0
  5  6  1  0
  6  7  1  0
  7  8  1  0
  7 36  1  0
  8  9  2  0
  8 37  1  0
  9  5  1  0
  9 10  1  0
 10 11  1  0
 10 38  1  0
 10 39  1  0
 11 12  1  0
 11 13  2  0
 12 40  1  0
 14 15  1  0
 15 16  1  0
 15 41  1  0
 15 42  1  0
 16 17  1  0
 16 43  1  0
 16 44  1  0
 17 18  1  0
 17 45  1  0
 17 46  1  0
 18 19  1  0
 19 20  2  0
 20 21  1  0
 20 47  1  0
 21 22  2  0
 21 48  1  0
 22 23  1  0
 22 49  1  0
 23 24  2  0
 23 25  1  0
 24 19  1  0
 24 50  1  0
 25 26  1  0
 26 27  2  0
 27 28  1  0
 27 51  1  0
 28 29  2  0
 28 52  1  0
 29 30  1  0
 29 32  1  0
 30 31  2  0
 30 53  1  0
 31 26  1  0
 31 54  1  0
M  END
> <Name>
CHEMBL3597415

> <Clean Energy>
31.724899

> <chembl_id>
CHEMBL3597415

> <chembl_pref_name>
None

> <efficacy>
1.064

> <Forcefield>
MMFF

> <ForcefieldBase>
MMFF

> <ForcefieldFFML>
<?xml version="1.0" encoding="UTF-8"?>
<!DOCTYPE ffml SYSTEM "Ffml.dtd">
<ffml version="1.0">
<forcefield name="MMFF" derivedFrom="MMFF" base="MMFF">
<atomTypes>
<atomType
name="C100"
element="C"
mass="12.011"
annotation=""/>
<atomType
name="N101"
element="N"
mass="14.007"
annotation=""/>
<atomType
name="O102"
element="O"
mass="16"
annotation=""/>
<atomType
name="Cl103"
element="Cl"
mass="35.453"
annotation=""/>
<atomType
name="H104"
element="H"
mass="1.008"
annotation=""/>
</atomTypes>
<parameters>
</parameters>
</forcefield>
</ffml>

> <Initial Potential Energy>
217.27767

> <Initial RMS Gradient>
47.61821

> <Minimization Criteria>
CONJUG> Minimization exiting with gradient tolerance ( 0.0100000) satisfied.

> <CHARMm Energy>
50.87719

> <Potential Energy>
50.87719

> <RMS Gradient>
0.00928

> <Bond Energy>
4.71743

> <Angle Energy>
16.62996

> <STRBend>
-0.30143

> <Dihedral Energy>
7.38238

> <OOPLane>
0.07817

> <Van der Waals Energy>
60.60435

> <Electrostatic Energy>
-38.23366

> <Hydrogen Bond Energy>
0

> <Solvation Free Energy>
0

> <HasGasteigerCharges>
true

> <REMARK99>
REMARK  99  MacroMolecule created from Mol2 file
REMARK  99  CHEMBL3597415
REMARK  99  PROTEIN
REMARK  99  GASTEIGER
REMARK  99
REMARK  99

$$$$
CHEMBL393381
  SciTegic05292516403D

 77 79  0  0  0  0            999 V2000
    8.7605  -19.1649   -2.1409 C   0  0
    7.8669  -20.0073   -1.4823 C   0  0
    8.1386  -20.4422   -0.1871 C   0  0
    9.3106  -20.0382    0.4517 C   0  0
   10.2247  -19.1941   -0.2004 C   0  0
    9.9380  -18.7677   -1.5076 C   0  0
   11.5384  -18.8363    0.4824 C   0  0  1  0  0  0
   12.6103  -19.8199   -0.0054 C   0  0
   11.8820  -17.4688    0.1369 O   0  0
   11.9266  -16.5354    1.1224 C   0  0
   11.1013  -15.4643    0.9658 N   0  0
   13.0298  -16.6495    2.3617 S   0  0
   10.1500  -15.2744   -0.1119 C   0  0
    9.5595  -13.8890   -0.0730 C   0  0
   13.8966  -19.7602    0.8200 C   0  0
   14.7956  -20.9676    0.6834 C   0  0
   14.8203  -21.7613   -0.4694 C   0  0
   15.6669  -22.8630   -0.5498 C   0  0
   16.5261  -23.1698    0.5113 C   0  0
   16.5147  -22.3783    1.6631 C   0  0
   15.6586  -21.2829    1.7441 C   0  0
   17.5016  -24.3072    0.3779 C   0  0
   18.6377  -23.9501   -0.5793 C   0  0  2  0  0  0
   19.3627  -25.2414   -0.9390 C   0  0
   20.6267  -25.2598   -0.4394 O   0  0
   18.8949  -26.1699   -1.5804 O   0  0
   19.6431  -23.1341    0.0819 O   0  0
   19.5809  -21.7687   -0.3428 C   0  0
   20.5963  -20.9789    0.4586 C   0  0
   10.3040  -12.7850   -0.5031 C   0  0
    9.7705  -11.4907   -0.4459 C   0  0
    8.4762  -11.2571    0.0458 C   0  0
    7.7426  -12.3781    0.4824 C   0  0
    8.2746  -13.6715    0.4284 C   0  0
    7.8574   -9.8490    0.1236 C   0  0
    6.5628   -9.8031   -0.7166 C   0  0
    8.7832   -8.7294   -0.4032 C   0  0
    7.5219   -9.5116    1.5924 C   0  0
    8.5327  -18.8195   -3.1477 H   0  0
    6.9540  -20.3268   -1.9799 H   0  0
    7.4355  -21.1006    0.3202 H   0  0
    9.5190  -20.4077    1.4541 H   0  0
   10.6430  -18.1339   -2.0421 H   0  0
   11.3936  -18.9309    1.5660 H   0  0
   12.2039  -20.8394    0.0450 H   0  0
   12.8511  -19.6184   -1.0576 H   0  0
   11.1305  -14.7501    1.6862 H   0  0
   10.6538  -15.4480   -1.0698 H   0  0
    9.3708  -16.0380   -0.0118 H   0  0
   14.4745  -18.8707    0.5447 H   0  0
   13.6241  -19.6766    1.8789 H   0  0
   14.1797  -21.5351   -1.3183 H   0  0
   15.6619  -23.4735   -1.4512 H   0  0
   17.1855  -22.5998    2.4921 H   0  0
   15.6660  -20.6667    2.6416 H   0  0
   17.9046  -24.5698    1.3647 H   0  0
   16.9494  -25.1888    0.0275 H   0  0
   18.3137  -23.4876   -1.5194 H   0  0
   20.7519  -24.3972    0.0309 H   0  0
   19.8241  -21.7107   -1.4093 H   0  0
   18.5815  -21.3571   -0.1808 H   0  0
   20.5944  -19.9264    0.1619 H   0  0
   21.6027  -21.3855    0.3140 H   0  0
   20.3766  -21.0449    1.5294 H   0  0
   11.3148  -12.9283   -0.8825 H   0  0
   10.3997  -10.6750   -0.7937 H   0  0
    6.7359  -12.2574    0.8777 H   0  0
    7.6771  -14.5089    0.7831 H   0  0
    6.1208   -8.7998   -0.7072 H   0  0
    5.7990  -10.4922   -0.3398 H   0  0
    6.7609  -10.0707   -1.7613 H   0  0
    8.2980   -7.7486   -0.3303 H   0  0
    9.0424   -8.8829   -1.4572 H   0  0
    9.7141   -8.6708    0.1728 H   0  0
    7.1098   -8.4996    1.6813 H   0  0
    8.4169   -9.5639    2.2235 H   0  0
    6.7803  -10.1976    2.0162 H   0  0
  1  2  2  0
  1 39  1  0
  2  3  1  0
  2 40  1  0
  3  4  2  0
  3 41  1  0
  4  5  1  0
  4 42  1  0
  5  6  2  0
  5  7  1  0
  6  1  1  0
  6 43  1  0
  7  8  1  0
  7  9  1  0
  7 44  1  0
  8 15  1  0
  8 45  1  0
  8 46  1  0
  9 10  1  0
 10 11  1  0
 10 12  2  0
 11 13  1  0
 11 47  1  0
 13 14  1  0
 13 48  1  0
 13 49  1  0
 14 30  2  0
 15 16  1  0
 15 50  1  0
 15 51  1  0
 16 17  2  0
 17 18  1  0
 17 52  1  0
 18 19  2  0
 18 53  1  0
 19 20  1  0
 19 22  1  0
 20 21  2  0
 20 54  1  0
 21 16  1  0
 21 55  1  0
 22 23  1  0
 22 56  1  0
 22 57  1  0
 23 24  1  0
 23 27  1  0
 23 58  1  0
 24 25  1  0
 24 26  2  0
 25 59  1  0
 27 28  1  0
 28 29  1  0
 28 60  1  0
 28 61  1  0
 29 62  1  0
 29 63  1  0
 29 64  1  0
 30 31  1  0
 30 65  1  0
 31 32  2  0
 31 66  1  0
 32 33  1  0
 32 35  1  0
 33 34  2  0
 33 67  1  0
 34 14  1  0
 34 68  1  0
 35 36  1  0
 35 37  1  0
 35 38  1  0
 36 69  1  0
 36 70  1  0
 36 71  1  0
 37 72  1  0
 37 73  1  0
 37 74  1  0
 38 75  1  0
 38 76  1  0
 38 77  1  0
M  END
> <Name>
CHEMBL393381

> <Clean Energy>
42.684799

> <chembl_id>
CHEMBL393381

> <chembl_pref_name>
None

> <efficacy>
1.97

> <Forcefield>
MMFF

> <ForcefieldBase>
MMFF

> <ForcefieldFFML>
<?xml version="1.0" encoding="UTF-8"?>
<!DOCTYPE ffml SYSTEM "Ffml.dtd">
<ffml version="1.0">
<forcefield name="MMFF" derivedFrom="MMFF" base="MMFF">
<atomTypes>
<atomType
name="C100"
element="C"
mass="12.011"
annotation=""/>
<atomType
name="O101"
element="O"
mass="16"
annotation=""/>
<atomType
name="N102"
element="N"
mass="14.007"
annotation=""/>
<atomType
name="S103"
element="S"
mass="32.066"
annotation=""/>
<atomType
name="H104"
element="H"
mass="1.008"
annotation=""/>
</atomTypes>
<parameters>
</parameters>
</forcefield>
</ffml>

> <Initial Potential Energy>
230.17956

> <Initial RMS Gradient>
28.98448

> <Minimization Criteria>
CONJUG> Minimization exiting with gradient tolerance ( 0.0100000) satisfied.

> <CHARMm Energy>
47.8513

> <Potential Energy>
47.8513

> <RMS Gradient>
0.00972

> <Bond Energy>
9.37912

> <Angle Energy>
9.94328

> <STRBend>
0.85425

> <Dihedral Energy>
10.18822

> <OOPLane>
0.26535

> <Van der Waals Energy>
81.98218

> <Electrostatic Energy>
-64.7611

> <Hydrogen Bond Energy>
0

> <Solvation Free Energy>
0

> <HasGasteigerCharges>
true

> <REMARK99>
REMARK  99  MacroMolecule created from Mol2 file
REMARK  99  CHEMBL393381
REMARK  99  PROTEIN
REMARK  99  GASTEIGER
REMARK  99
REMARK  99

$$$$
CHEMBL5076063
  SciTegic05292516403D

 52 54  0  0  0  0            999 V2000
   23.2836  -22.9928    0.8340 C   0  0
   23.0965  -22.3265   -0.5415 C   0  0
   24.0666  -22.9891   -1.5377 C   0  0
   19.1354  -21.6268    1.2317 C   0  0
   18.3752  -22.8038    1.2383 C   0  0
   18.7874  -23.8852    0.4457 C   0  0
   19.9542  -23.8109   -0.3287 C   0  0
   20.7119  -22.6303   -0.3029 C   0  0
   20.2960  -21.5397    0.4610 C   0  0
   21.8020  -22.5692   -1.1246 O   0  0
   23.4579  -20.8229   -0.4992 C   0  0
   24.6685  -20.5364    0.0428 O   0  0
   22.7540  -19.9214   -0.9339 O   0  0
   17.0782  -22.8780    2.0096 C   0  0
   16.0033  -22.2912    1.2568 N   0  0
   15.6043  -20.9552    1.3481 C   0  0
   14.7279  -20.7729    0.2965 N   0  0
   14.6647  -21.9750   -0.3209 C   0  0
   15.3941  -22.9138    0.1944 N   0  0
   16.0054  -20.1521    2.1780 O   0  0
   14.0399  -19.5959   -0.0538 C   0  0
   13.9188  -18.5306    0.8467 C   0  0
   13.1662  -17.3959    0.5302 C   0  0
   12.5172  -17.3050   -0.6976 C   0  0
   12.6988  -18.3240   -1.6321 C   0  0
   13.4391  -19.4639   -1.3114 C   0  0
   20.3591  -24.9711   -1.1934 C   0  0
   11.6933  -16.2940   -1.0987 O   0  0
   11.1940  -15.4419   -0.0839 C   0  0
   10.2384  -14.6571   -0.6248 F   0  0
   10.6311  -16.1397    0.9257 F   0  0
   12.1633  -14.6388    0.4026 F   0  0
   22.9191  -24.0260    0.8287 H   0  0
   22.7384  -22.4546    1.6168 H   0  0
   24.3345  -23.0133    1.1414 H   0  0
   23.9829  -22.5244   -2.5277 H   0  0
   23.8251  -24.0505   -1.6687 H   0  0
   25.1115  -22.9123   -1.2201 H   0  0
   18.8062  -20.7568    1.7993 H   0  0
   18.1737  -24.7842    0.4115 H   0  0
   20.8492  -20.6065    0.4464 H   0  0
   25.2422  -21.2837    0.2990 H   0  0
   16.8172  -23.9167    2.2418 H   0  0
   17.1902  -22.3495    2.9635 H   0  0
   14.0183  -22.1151   -1.1942 H   0  0
   14.3765  -18.5640    1.8325 H   0  0
   13.0950  -16.6153    1.2832 H   0  0
   12.2414  -18.2458   -2.6158 H   0  0
   13.5576  -20.2216   -2.0800 H   0  0
   21.3779  -25.2901   -0.9515 H   0  0
   20.3077  -24.6901   -2.2501 H   0  0
   19.7009  -25.8332   -1.0427 H   0  0
  1 33  1  0
  1 34  1  0
  1 35  1  0
  2  1  1  0
  2 11  1  0
  3  2  1  0
  3 36  1  0
  3 37  1  0
  3 38  1  0
  4  5  2  0
  4 39  1  0
  5  6  1  0
  5 14  1  0
  6  7  2  0
  6 40  1  0
  7  8  1  0
  7 27  1  0
  8  9  2  0
  8 10  1  0
  9  4  1  0
  9 41  1  0
 10  2  1  0
 11 12  1  0
 11 13  2  0
 12 42  1  0
 14 15  1  0
 14 43  1  0
 14 44  1  0
 15 16  1  0
 16 17  1  0
 16 20  2  0
 17 18  1  0
 17 21  1  0
 18 19  2  0
 18 45  1  0
 19 15  1  0
 21 22  2  0
 22 23  1  0
 22 46  1  0
 23 24  2  0
 23 47  1  0
 24 25  1  0
 24 28  1  0
 25 26  2  0
 25 48  1  0
 26 21  1  0
 26 49  1  0
 27 50  1  0
 27 51  1  0
 27 52  1  0
 28 29  1  0
 29 30  1  0
 29 31  1  0
 29 32  1  0
M  END
> <Name>
CHEMBL5076063

> <Clean Energy>
63.229401

> <chembl_id>
CHEMBL5076063

> <chembl_pref_name>
None

> <efficacy>
1.1

> <Forcefield>
MMFF

> <ForcefieldBase>
MMFF

> <ForcefieldFFML>
<?xml version="1.0" encoding="UTF-8"?>
<!DOCTYPE ffml SYSTEM "Ffml.dtd">
<ffml version="1.0">
<forcefield name="MMFF" derivedFrom="MMFF" base="MMFF">
<atomTypes>
<atomType
name="C100"
element="C"
mass="12.011"
annotation=""/>
<atomType
name="O101"
element="O"
mass="16"
annotation=""/>
<atomType
name="N102"
element="N"
mass="14.007"
annotation=""/>
<atomType
name="F103"
element="F"
mass="18.998"
annotation=""/>
<atomType
name="H104"
element="H"
mass="1.008"
annotation=""/>
</atomTypes>
<parameters>
</parameters>
</forcefield>
</ffml>

> <Initial Potential Energy>
221.09382

> <Initial RMS Gradient>
31.26149

> <Minimization Criteria>
CONJUG> Minimization exiting with gradient tolerance ( 0.0100000) satisfied.

> <CHARMm Energy>
90.76884

> <Potential Energy>
90.76884

> <RMS Gradient>
0.00939

> <Bond Energy>
5.78468

> <Angle Energy>
36.47183

> <STRBend>
-1.14758

> <Dihedral Energy>
8.81797

> <OOPLane>
0.23934

> <Van der Waals Energy>
55.79524

> <Electrostatic Energy>
-15.19264

> <Hydrogen Bond Energy>
0

> <Solvation Free Energy>
0

> <HasGasteigerCharges>
true

> <REMARK99>
REMARK  99  MacroMolecule created from Mol2 file
REMARK  99  CHEMBL5076063
REMARK  99  PROTEIN
REMARK  99  GASTEIGER
REMARK  99
REMARK  99

$$$$
CHEMBL220533
  SciTegic05292516403D

 57 60  0  0  0  0            999 V2000
   10.3439   -3.7899    0.2518 C   0  0  1  0  0  0
   10.1245   -5.2873    0.5151 C   0  0
    9.5961   -6.0205   -0.7098 C   0  0
   10.5134   -5.7705   -1.8958 C   0  0
   10.7062   -4.2800   -2.1146 C   0  0
   11.1964   -3.6224   -0.9403 O   0  0
    6.5810   -3.6576    2.9092 C   0  0
    5.4452   -3.8409    2.1362 C   0  0
    5.4375   -3.7716    0.7890 N   0  0
    6.6221   -3.4846    0.1992 C   0  0
    7.8254   -3.2695    0.8787 C   0  0
    7.7832   -3.3521    2.2715 C   0  0
    4.2776   -4.1348    2.8125 O   0  0
    3.0886   -3.9104    2.0469 C   0  0
    2.6608   -5.1719    1.2996 C   0  0
    1.5096   -4.9121    0.3988 C   0  0
    1.5100   -4.4674   -0.9056 C   0  0
    0.2103   -4.3428   -1.3075 O   0  0
   -0.5252   -4.7237   -0.2122 C   0  0
    0.2112   -5.0758    0.8267 N   0  0
   -1.9762   -4.6605   -0.3340 C   0  0
   -2.6042   -4.2325   -1.5133 C   0  0
   -3.9951   -4.1602   -1.5902 C   0  0
   -4.7707   -4.5160   -0.4893 C   0  0
   -4.1639   -4.9494    0.6863 C   0  0
   -2.7743   -5.0218    0.7623 C   0  0
    2.5615   -4.1014   -1.8702 C   0  0
    9.0796   -2.8917    0.1257 C   0  0
   11.2284   -3.2059    1.3704 C   0  0
   12.1762   -2.3642    0.8696 O   0  0
   11.1627   -3.4365    2.5676 O   0  0
   11.0860   -5.7459    0.7863 H   0  0
    9.4649   -5.4594    1.3716 H   0  0
    9.5375   -7.0952   -0.5047 H   0  0
    8.5808   -5.6832   -0.9461 H   0  0
   11.4867   -6.2348   -1.6944 H   0  0
   10.1057   -6.2379   -2.7983 H   0  0
   11.4490   -4.1215   -2.9035 H   0  0
    9.7809   -3.8082   -2.4580 H   0  0
    6.5261   -3.7311    3.9898 H   0  0
    6.5667   -3.4204   -0.8850 H   0  0
    8.6683   -3.1742    2.8786 H   0  0
    2.3043   -3.6420    2.7660 H   0  0
    3.1852   -3.0374    1.3868 H   0  0
    3.4959   -5.5864    0.7236 H   0  0
    2.3991   -5.9507    2.0266 H   0  0
   -2.0131   -3.9461   -2.3804 H   0  0
   -4.4740   -3.8245   -2.5065 H   0  0
   -5.8522   -4.4547   -0.5466 H   0  0
   -4.7706   -5.2286    1.5436 H   0  0
   -2.3078   -5.3576    1.6872 H   0  0
    2.1716   -4.0819   -2.8925 H   0  0
    3.3852   -4.8211   -1.8373 H   0  0
    2.9620   -3.1101   -1.6373 H   0  0
    8.8108   -2.7861   -0.9308 H   0  0
    9.3322   -1.8628    0.4214 H   0  0
   12.1659   -2.4566   -0.1129 H   0  0
  1  2  1  0
  1  6  1  0
  1 29  1  0
  2  3  1  0
  2 32  1  0
  2 33  1  0
  3  4  1  0
  3 34  1  0
  3 35  1  0
  4  5  1  0
  4 36  1  0
  4 37  1  0
  5  6  1  0
  5 38  1  0
  5 39  1  0
  7  8  2  0
  7 40  1  0
  8  9  1  0
  8 13  1  0
  9 10  2  0
 10 11  1  0
 10 41  1  0
 11 12  2  0
 11 28  1  0
 12  7  1  0
 12 42  1  0
 13 14  1  0
 14 15  1  0
 14 43  1  0
 14 44  1  0
 15 16  1  0
 15 45  1  0
 15 46  1  0
 16 17  2  0
 17 18  1  0
 17 27  1  0
 18 19  1  0
 19 20  2  0
 19 21  1  0
 20 16  1  0
 21 22  2  0
 22 23  1  0
 22 47  1  0
 23 24  2  0
 23 48  1  0
 24 25  1  0
 24 49  1  0
 25 26  2  0
 25 50  1  0
 26 21  1  0
 26 51  1  0
 27 52  1  0
 27 53  1  0
 27 54  1  0
 28  1  1  0
 28 55  1  0
 28 56  1  0
 29 30  1  0
 29 31  2  0
 30 57  1  0
M  END
> <Name>
CHEMBL220533

> <Clean Energy>
56.341599

> <chembl_id>
CHEMBL220533

> <chembl_pref_name>
None

> <efficacy>
1.119565217

> <Forcefield>
MMFF

> <ForcefieldBase>
MMFF

> <ForcefieldFFML>
<?xml version="1.0" encoding="UTF-8"?>
<!DOCTYPE ffml SYSTEM "Ffml.dtd">
<ffml version="1.0">
<forcefield name="MMFF" derivedFrom="MMFF" base="MMFF">
<atomTypes>
<atomType
name="C100"
element="C"
mass="12.011"
annotation=""/>
<atomType
name="O101"
element="O"
mass="16"
annotation=""/>
<atomType
name="N102"
element="N"
mass="14.007"
annotation=""/>
<atomType
name="H103"
element="H"
mass="1.008"
annotation=""/>
</atomTypes>
<parameters>
</parameters>
</forcefield>
</ffml>

> <Initial Potential Energy>
182.35486

> <Initial RMS Gradient>
27.51396

> <Minimization Criteria>
CONJUG> Minimization exiting with gradient tolerance ( 0.0100000) satisfied.

> <CHARMm Energy>
64.55502

> <Potential Energy>
64.55502

> <RMS Gradient>
0.0097

> <Bond Energy>
5.87515

> <Angle Energy>
12.6988

> <STRBend>
1.83041

> <Dihedral Energy>
-0.33906

> <OOPLane>
0.05105

> <Van der Waals Energy>
54.03286

> <Electrostatic Energy>
-9.59419

> <Hydrogen Bond Energy>
0

> <Solvation Free Energy>
0

> <HasGasteigerCharges>
true

> <REMARK99>
REMARK  99  MacroMolecule created from Mol2 file
REMARK  99  CHEMBL220533
REMARK  99  PROTEIN
REMARK  99  GASTEIGER
REMARK  99
REMARK  99

$$$$
CHEMBL3597435
  SciTegic05292516403D

 70 73  0  0  0  0            999 V2000
   -1.2581    1.0763   -0.0758 C   0  0
   -1.2731   -0.3066   -0.2386 C   0  0
   -0.1024   -1.0151   -0.5083 C   0  0
   -0.0483    1.7830   -0.1386 C   0  0
    1.1553    1.0904   -0.4046 C   0  0
    1.0976   -0.2935   -0.5975 C   0  0
    2.3818   -0.7171   -0.8632 N   0  0
    3.2431    0.3481   -0.8335 C   0  0
    2.5276    1.4904   -0.5288 C   0  0
    3.0999    2.8682   -0.3707 C   0  0
    4.1983    2.8932    0.6746 C   0  0
    3.7669    2.6114    1.9306 O   0  0
    5.3831    3.0893    0.4304 O   0  0
   -2.4888    1.6347    0.1569 O   0  0
   -2.5870    3.0330   -0.0879 C   0  0
   -4.0501    3.4494   -0.0063 C   0  0
   -4.1674    4.9375   -0.2918 C   0  0
   -5.5120    5.3744   -0.0618 O   0  0
   -5.5870    6.7055    0.2724 C   0  0
   -6.5694    7.0566    1.1940 C   0  0
   -6.6647    8.3765    1.6371 C   0  0
   -5.7744    9.3436    1.1646 C   0  0
   -4.7921    8.9992    0.2392 C   0  0
   -4.7396    7.6908   -0.2472 C   0  0
   -3.9295   10.0036   -0.1239 O   0  0
   -2.6364    9.5450   -0.5450 C   0  0
   -1.5987   10.6349   -0.3898 C   0  0
   -0.3285   10.2891    0.1030 C   0  0
    0.6917   11.2328    0.1839 C   0  0
    0.4478   12.5347   -0.2303 C   0  0
   -0.8087   12.9062   -0.7119 C   0  0
   -1.8326   11.9559   -0.7959 C   0  0
    1.7149   13.6919   -0.1504 Cl  0  0
    2.7737   -2.0923   -1.1613 C   0  0
    2.9049   -2.9108    0.0926 C   0  0
    2.3121   -4.0845    0.3901 C   0  0
    2.5569   -4.7457    1.7230 C   0  0
    1.3927   -4.8568   -0.5153 C   0  0
   -2.2189   -0.8387   -0.1700 H   0  0
   -0.1325   -2.0921   -0.6422 H   0  0
   -0.0089    2.8545    0.0099 H   0  0
    4.3023    0.2078   -1.0152 H   0  0
    3.5241    3.2008   -1.3253 H   0  0
    2.3384    3.6019   -0.0873 H   0  0
    2.7950    2.4914    1.9652 H   0  0
   -2.0177    3.5795    0.6738 H   0  0
   -2.1969    3.2731   -1.0854 H   0  0
   -4.6594    2.8727   -0.7126 H   0  0
   -4.4574    3.2132    0.9845 H   0  0
   -3.4646    5.4690    0.3645 H   0  0
   -3.9035    5.1341   -1.3380 H   0  0
   -7.2490    6.3014    1.5804 H   0  0
   -7.4257    8.6528    2.3617 H   0  0
   -5.8465   10.3666    1.5275 H   0  0
   -4.0275    7.4295   -1.0206 H   0  0
   -2.3225    8.6817    0.0565 H   0  0
   -2.6790    9.2573   -1.6025 H   0  0
   -0.1192    9.2711    0.4222 H   0  0
    1.6678   10.9366    0.5583 H   0  0
   -0.9940   13.9319   -1.0276 H   0  0
   -2.8084   12.2503   -1.1824 H   0  0
    2.0454   -2.4828   -1.8760 H   0  0
    3.7422   -2.0542   -1.6731 H   0  0
    3.5731   -2.4726    0.8355 H   0  0
    1.6116   -4.8730    2.2608 H   0  0
    3.2259   -4.1602    2.3624 H   0  0
    3.0120   -5.7311    1.5796 H   0  0
    1.7821   -5.8683   -0.6724 H   0  0
    1.2704   -4.4033   -1.5009 H   0  0
    0.3992   -4.9363   -0.0619 H   0  0
  1  2  2  0
  1 14  1  0
  2  3  1  0
  2 39  1  0
  3  6  2  0
  3 40  1  0
  4  1  1  0
  4 41  1  0
  5  4  2  0
  5  6  1  0
  6  7  1  0
  7  8  1  0
  7 34  1  0
  8  9  2  0
  8 42  1  0
  9  5  1  0
  9 10  1  0
 10 11  1  0
 10 43  1  0
 10 44  1  0
 11 12  1  0
 11 13  2  0
 12 45  1  0
 14 15  1  0
 15 16  1  0
 15 46  1  0
 15 47  1  0
 16 17  1  0
 16 48  1  0
 16 49  1  0
 17 18  1  0
 17 50  1  0
 17 51  1  0
 18 19  1  0
 19 20  2  0
 20 21  1  0
 20 52  1  0
 21 22  2  0
 21 53  1  0
 22 23  1  0
 22 54  1  0
 23 24  2  0
 23 25  1  0
 24 19  1  0
 24 55  1  0
 25 26  1  0
 26 27  1  0
 26 56  1  0
 26 57  1  0
 27 28  2  0
 28 29  1  0
 28 58  1  0
 29 30  2  0
 29 59  1  0
 30 31  1  0
 30 33  1  0
 31 32  2  0
 31 60  1  0
 32 27  1  0
 32 61  1  0
 34 35  1  0
 34 62  1  0
 34 63  1  0
 35 36  2  0
 35 64  1  0
 36 37  1  0
 36 38  1  0
 37 65  1  0
 37 66  1  0
 37 67  1  0
 38 68  1  0
 38 69  1  0
 38 70  1  0
M  END
> <Name>
CHEMBL3597435

> <Clean Energy>
22.1047

> <chembl_id>
CHEMBL3597435

> <chembl_pref_name>
None

> <efficacy>
1.201

> <Forcefield>
MMFF

> <ForcefieldBase>
MMFF

> <ForcefieldFFML>
<?xml version="1.0" encoding="UTF-8"?>
<!DOCTYPE ffml SYSTEM "Ffml.dtd">
<ffml version="1.0">
<forcefield name="MMFF" derivedFrom="MMFF" base="MMFF">
<atomTypes>
<atomType
name="C100"
element="C"
mass="12.011"
annotation=""/>
<atomType
name="N101"
element="N"
mass="14.007"
annotation=""/>
<atomType
name="O102"
element="O"
mass="16"
annotation=""/>
<atomType
name="Cl103"
element="Cl"
mass="35.453"
annotation=""/>
<atomType
name="H104"
element="H"
mass="1.008"
annotation=""/>
</atomTypes>
<parameters>
</parameters>
</forcefield>
</ffml>

> <Initial Potential Energy>
181.08962

> <Initial RMS Gradient>
26.75355

> <Minimization Criteria>
CONJUG> Minimization exiting with gradient tolerance ( 0.0100000) satisfied.

> <CHARMm Energy>
77.28996

> <Potential Energy>
77.28996

> <RMS Gradient>
0.00905

> <Bond Energy>
6.26593

> <Angle Energy>
18.26326

> <STRBend>
-0.04452

> <Dihedral Energy>
-2.12196

> <OOPLane>
0.10448

> <Van der Waals Energy>
73.46381

> <Electrostatic Energy>
-18.64104

> <Hydrogen Bond Energy>
0

> <Solvation Free Energy>
0

> <HasGasteigerCharges>
true

> <REMARK99>
REMARK  99  MacroMolecule created from Mol2 file
REMARK  99  CHEMBL3597435
REMARK  99  PROTEIN
REMARK  99  GASTEIGER
REMARK  99
REMARK  99

$$$$
CHEMBL4069463
  SciTegic05292516403D

 50 53  0  0  0  0            999 V2000
   27.7404  -11.0600   -0.1413 N   0  0
   28.0082  -12.2673    0.4022 C   0  0
   26.4446  -10.6751   -0.3077 C   0  0
   26.5216  -13.0902    0.7928 S   0  0
   25.4638  -11.7220    0.1802 C   0  0  2  0  0  0
   29.1130  -12.7381    0.5942 O   0  0
   26.1468   -9.5913   -0.7945 O   0  0
   24.5242  -12.1507   -0.9559 C   0  0
   23.1284  -12.5321   -0.5071 C   0  0
   20.4842  -13.2446    0.1915 C   0  0
   16.8283  -13.6945    0.4980 C   0  0
   22.8333  -13.8261   -0.0658 C   0  0
   22.0908  -11.5904   -0.5607 C   0  0
   18.1181  -12.9203    0.1667 C   0  0
   21.5230  -14.1739    0.2838 C   0  0
   20.7781  -11.9447   -0.2184 C   0  0
   19.2467  -13.7231    0.5335 O   0  0
   15.5717  -13.0710    0.0433 N   0  0
   15.4758  -11.6121   -0.0538 C   0  0
   14.4043  -13.7917   -0.0155 C   0  0
   13.2487  -13.2457   -0.3224 N   0  0
   14.3011  -15.4915    0.3087 S   0  0
   12.6111  -15.4734    0.0257 C   0  0
   12.2277  -14.1768   -0.3024 C   0  0
   10.8697  -13.9205   -0.5786 C   0  0
    9.9398  -14.9629   -0.5160 C   0  0
   10.3464  -16.2521   -0.1855 C   0  0
   11.6880  -16.5308    0.0895 C   0  0
   15.2459  -10.9859    1.3144 C   0  0
   28.5013  -10.4577   -0.4188 H   0  0
   24.9192  -11.2949    1.0293 H   0  0
   24.4203  -11.3356   -1.6855 H   0  0
   24.9505  -12.9780   -1.5396 H   0  0
   16.9435  -14.6882    0.0471 H   0  0
   16.7835  -13.8531    1.5834 H   0  0
   23.6110  -14.5838   -0.0074 H   0  0
   22.2930  -10.5724   -0.8912 H   0  0
   18.1485  -12.7060   -0.9087 H   0  0
   18.1403  -11.9861    0.7388 H   0  0
   21.3033  -15.1879    0.6113 H   0  0
   20.0089  -11.1828   -0.2885 H   0  0
   16.3795  -11.1886   -0.5037 H   0  0
   14.6673  -11.3099   -0.7317 H   0  0
   10.5616  -12.9126   -0.8368 H   0  0
    8.8930  -14.7612   -0.7274 H   0  0
    9.6125  -17.0540   -0.1401 H   0  0
   12.0117  -17.5346    0.3459 H   0  0
   15.1840   -9.8968    1.2258 H   0  0
   16.0618  -11.2242    2.0042 H   0  0
   14.3133  -11.3431    1.7633 H   0  0
  1 30  1  0
  2  1  1  0
  3  1  1  0
  4  2  1  0
  5  3  1  0
  5  4  1  0
  5 31  1  0
  6  2  2  0
  7  3  2  0
  8  5  1  0
  8 32  1  0
  8 33  1  0
  9  8  1  0
 10 15  2  0
 10 16  1  0
 11 14  1  0
 11 18  1  0
 11 34  1  0
 11 35  1  0
 12  9  2  0
 12 36  1  0
 13  9  1  0
 13 37  1  0
 14 17  1  0
 14 38  1  0
 14 39  1  0
 15 12  1  0
 15 40  1  0
 16 13  2  0
 16 41  1  0
 17 10  1  0
 18 19  1  0
 18 20  1  0
 19 29  1  0
 19 42  1  0
 19 43  1  0
 20 21  2  0
 21 24  1  0
 22 20  1  0
 23 22  1  0
 23 24  2  0
 24 25  1  0
 25 26  2  0
 25 44  1  0
 26 27  1  0
 26 45  1  0
 27 28  2  0
 27 46  1  0
 28 23  1  0
 28 47  1  0
 29 48  1  0
 29 49  1  0
 29 50  1  0
M  END
> <Name>
CHEMBL4069463

> <Clean Energy>
55.960999

> <chembl_id>
CHEMBL4069463

> <chembl_pref_name>
None

> <efficacy>
1.234567901

> <Forcefield>
MMFF

> <ForcefieldBase>
MMFF

> <ForcefieldFFML>
<?xml version="1.0" encoding="UTF-8"?>
<!DOCTYPE ffml SYSTEM "Ffml.dtd">
<ffml version="1.0">
<forcefield name="MMFF" derivedFrom="MMFF" base="MMFF">
<atomTypes>
<atomType
name="N100"
element="N"
mass="14.007"
annotation=""/>
<atomType
name="C101"
element="C"
mass="12.011"
annotation=""/>
<atomType
name="S102"
element="S"
mass="32.066"
annotation=""/>
<atomType
name="O103"
element="O"
mass="16"
annotation=""/>
<atomType
name="H104"
element="H"
mass="1.008"
annotation=""/>
</atomTypes>
<parameters>
</parameters>
</forcefield>
</ffml>

> <Initial Potential Energy>
49.49266

> <Initial RMS Gradient>
29.74874

> <Minimization Criteria>
STEEPD> Minimization exiting with gradient tolerance ( 3.0000000) satisfied.

> <CHARMm Energy>
-20.75922

> <Potential Energy>
-20.75922

> <RMS Gradient>
0.05443

> <Bond Energy>
5.35512

> <Angle Energy>
19.02891

> <STRBend>
-0.09254

> <Dihedral Energy>
4.34721

> <OOPLane>
0.30263

> <Van der Waals Energy>
45.66785

> <Electrostatic Energy>
-95.3684

> <Hydrogen Bond Energy>
0

> <Solvation Free Energy>
0

> <HasGasteigerCharges>
true

> <REMARK99>
REMARK  99  MacroMolecule created from Mol2 file
REMARK  99  CHEMBL4069463
REMARK  99  PROTEIN
REMARK  99  GASTEIGER
REMARK  99
REMARK  99

$$$$
CHEMBL4163237
  SciTegic05292516403D

 46 49  0  0  0  0            999 V2000
   36.1025  -10.2190   -0.1260 C   0  0
   37.2646  -10.7908   -0.5894 O   0  0
   38.4192  -10.0332   -0.5777 C   0  0
   39.6129  -10.7554   -0.4234 C   0  0
   39.6509   -7.9465   -0.7961 C   0  0
   38.4398   -8.6503   -0.7844 C   0  0
   40.8507   -8.6540   -0.6263 C   0  0
   40.8177  -10.0336   -0.4558 C   0  0
   42.1467  -10.3917   -0.3646 N   0  0
   42.9129   -9.2459   -0.4573 C   0  0
   42.1385   -8.1871   -0.6157 N   0  0
   42.6461  -11.7388   -0.2236 C   0  0
   44.4116   -9.2031   -0.4672 C   0  0
   44.9115  -10.0138    0.6029 O   0  0
   46.2536  -10.2792    0.5475 C   0  0
   46.6291  -11.5591    0.9660 C   0  0
   47.9684  -11.9505    0.9454 C   0  0
   48.9469  -11.0505    0.5300 C   0  0
   48.5772   -9.7542    0.1609 C   0  0
   47.2307   -9.3620    0.1576 C   0  0
   36.0068   -9.6461    1.1436 C   0  0
   34.7849   -9.1223    1.5640 C   0  0
   33.6606   -9.1848    0.7385 C   0  0
   33.7563   -9.7805   -0.5199 C   0  0
   34.9775  -10.3042   -0.9490 C   0  0
   49.6401   -8.8143   -0.2473 C   0  0
   49.6102   -7.6635    0.4546 O   0  0
   50.4733   -9.0790   -1.0947 O   0  0
   34.6569   -8.3970    3.1194 Cl  0  0
   39.5986  -11.8311   -0.2918 H   0  0
   39.6784   -6.8735   -0.9518 H   0  0
   37.5174   -8.0990   -0.9505 H   0  0
   43.5299  -11.8641   -0.8540 H   0  0
   41.8843  -12.4522   -0.5449 H   0  0
   42.8915  -11.9045    0.8283 H   0  0
   44.7743   -9.5688   -1.4357 H   0  0
   44.7303   -8.1645   -0.3224 H   0  0
   45.8709  -12.2662    1.2947 H   0  0
   48.2451  -12.9569    1.2506 H   0  0
   49.9918  -11.3531    0.5020 H   0  0
   46.9693   -8.3543   -0.1503 H   0  0
   36.8742   -9.6104    1.7965 H   0  0
   32.7066   -8.7817    1.0733 H   0  0
   32.8783   -9.8423   -1.1600 H   0  0
   35.0533  -10.7756   -1.9257 H   0  0
   48.9869   -7.6574    1.2060 H   0  0
  1  2  1  0
  1 21  2  0
  2  3  1  0
  3  4  2  0
  4  8  1  0
  4 30  1  0
  5  6  2  0
  5 31  1  0
  6  3  1  0
  6 32  1  0
  7  5  1  0
  7  8  2  0
  8  9  1  0
  9 10  1  0
  9 12  1  0
 10 11  2  0
 10 13  1  0
 11  7  1  0
 12 33  1  0
 12 34  1  0
 12 35  1  0
 13 14  1  0
 13 36  1  0
 13 37  1  0
 14 15  1  0
 15 16  2  0
 16 17  1  0
 16 38  1  0
 17 18  2  0
 17 39  1  0
 18 19  1  0
 18 40  1  0
 19 20  2  0
 19 26  1  0
 20 15  1  0
 20 41  1  0
 21 22  1  0
 21 42  1  0
 22 23  2  0
 22 29  1  0
 23 24  1  0
 23 43  1  0
 24 25  2  0
 24 44  1  0
 25  1  1  0
 25 45  1  0
 26 27  1  0
 26 28  2  0
 27 46  1  0
M  END
> <Name>
CHEMBL4163237

> <Clean Energy>
30.942699

> <chembl_id>
CHEMBL4163237

> <chembl_pref_name>
None

> <efficacy>
1.03

> <Forcefield>
MMFF

> <ForcefieldBase>
MMFF

> <ForcefieldFFML>
<?xml version="1.0" encoding="UTF-8"?>
<!DOCTYPE ffml SYSTEM "Ffml.dtd">
<ffml version="1.0">
<forcefield name="MMFF" derivedFrom="MMFF" base="MMFF">
<atomTypes>
<atomType
name="C100"
element="C"
mass="12.011"
annotation=""/>
<atomType
name="O101"
element="O"
mass="16"
annotation=""/>
<atomType
name="N102"
element="N"
mass="14.007"
annotation=""/>
<atomType
name="Cl103"
element="Cl"
mass="35.453"
annotation=""/>
<atomType
name="H104"
element="H"
mass="1.008"
annotation=""/>
</atomTypes>
<parameters>
</parameters>
</forcefield>
</ffml>

> <Initial Potential Energy>
182.55798

> <Initial RMS Gradient>
45.58413

> <Minimization Criteria>
STEEPD> Minimization exiting with gradient tolerance ( 3.0000000) satisfied.

> <CHARMm Energy>
63.25933

> <Potential Energy>
63.25933

> <RMS Gradient>
0.1825

> <Bond Energy>
4.79629

> <Angle Energy>
14.8691

> <STRBend>
0.03644

> <Dihedral Energy>
14.48306

> <OOPLane>
0.16137

> <Van der Waals Energy>
55.46717

> <Electrostatic Energy>
-26.5541

> <Hydrogen Bond Energy>
0

> <Solvation Free Energy>
0

> <HasGasteigerCharges>
true

> <REMARK99>
REMARK  99  MacroMolecule created from Mol2 file
REMARK  99  CHEMBL4163237
REMARK  99  PROTEIN
REMARK  99  GASTEIGER
REMARK  99
REMARK  99

$$$$
CHEMBL5089733
  SciTegic05292516403D

 54 56  0  0  0  0            999 V2000
   48.1955  -30.8092    1.5288 C   0  0
   47.5376  -29.8288    0.5441 C   0  0
   47.3553  -30.5228   -0.8197 C   0  0
   43.5358  -28.6533   -1.0887 C   0  0
   42.7483  -29.8001   -0.9226 C   0  0
   43.1291  -30.7479    0.0342 C   0  0
   44.3091  -30.5934    0.7761 C   0  0
   45.1448  -29.4935    0.5121 C   0  0
   44.7253  -28.4775   -0.3640 C   0  0
   45.5207  -27.2179   -0.5612 C   0  0
   44.6692  -31.6392    1.7924 C   0  0
   46.3248  -29.3818    1.1984 O   0  0
   48.4962  -28.6166    0.4205 C   0  0
   49.6601  -28.8628   -0.2293 O   0  0
   48.2816  -27.5036    0.8821 O   0  0
   41.4949  -29.9995   -1.7401 C   0  0
   40.2959  -29.5735   -1.0590 N   0  0
   39.6627  -28.3329   -1.2136 C   0  0
   38.5203  -28.4083   -0.4312 N   0  0
   38.5729  -29.6404    0.1255 C   0  0
   39.5852  -30.3789   -0.2068 N   0  0
   40.0696  -27.4272   -1.9269 O   0  0
   37.5120  -27.4263   -0.2696 C   0  0
   37.6817  -26.1260   -0.7633 C   0  0
   36.6825  -25.1570   -0.6203 C   0  0
   35.4866  -25.4690    0.0184 C   0  0
   35.2816  -26.7540    0.5316 C   0  0
   36.2994  -27.7211    0.3809 C   0  0
   33.9722  -27.1075    1.1986 C   0  0
   34.0892  -28.1389    2.0818 F   0  0
   33.0167  -27.4871    0.3048 F   0  0
   33.4299  -26.0743    1.9036 F   0  0
   47.5647  -31.6882    1.6919 H   0  0
   48.3393  -30.3388    2.5089 H   0  0
   49.1727  -31.1569    1.1775 H   0  0
   47.0011  -29.8206   -1.5815 H   0  0
   46.6354  -31.3459   -0.7644 H   0  0
   48.2918  -30.9496   -1.1934 H   0  0
   43.2003  -27.8788   -1.7789 H   0  0
   42.4806  -31.6054    0.2128 H   0  0
   44.9226  -26.4465   -1.0589 H   0  0
   46.3981  -27.4125   -1.1833 H   0  0
   45.8252  -26.8028    0.4040 H   0  0
   45.2947  -32.4096    1.3322 H   0  0
   43.7699  -32.1181    2.1950 H   0  0
   45.1990  -31.2005    2.6438 H   0  0
   49.8288  -29.7804   -0.5084 H   0  0
   41.5803  -29.4456   -2.6827 H   0  0
   41.3845  -31.0572   -2.0081 H   0  0
   37.7893  -29.9668    0.8177 H   0  0
   38.5972  -25.8195   -1.2636 H   0  0
   36.8510  -24.1560   -1.0119 H   0  0
   34.7160  -24.7057    0.1162 H   0  0
   36.0973  -28.7173    0.7679 H   0  0
  1 33  1  0
  1 34  1  0
  1 35  1  0
  2  1  1  0
  2 13  1  0
  3  2  1  0
  3 36  1  0
  3 37  1  0
  3 38  1  0
  4  5  2  0
  4 39  1  0
  5  6  1  0
  5 16  1  0
  6  7  2  0
  6 40  1  0
  7  8  1  0
  7 11  1  0
  8  9  2  0
  8 12  1  0
  9  4  1  0
  9 10  1  0
 10 41  1  0
 10 42  1  0
 10 43  1  0
 11 44  1  0
 11 45  1  0
 11 46  1  0
 12  2  1  0
 13 14  1  0
 13 15  2  0
 14 47  1  0
 16 17  1  0
 16 48  1  0
 16 49  1  0
 17 18  1  0
 18 19  1  0
 18 22  2  0
 19 20  1  0
 19 23  1  0
 20 21  2  0
 20 50  1  0
 21 17  1  0
 23 24  2  0
 24 25  1  0
 24 51  1  0
 25 26  2  0
 25 52  1  0
 26 27  1  0
 26 53  1  0
 27 28  2  0
 27 29  1  0
 28 23  1  0
 28 54  1  0
 29 30  1  0
 29 31  1  0
 29 32  1  0
M  END
> <Name>
CHEMBL5089733

> <Clean Energy>
71.547897

> <chembl_id>
CHEMBL5089733

> <chembl_pref_name>
None

> <efficacy>
2.09

> <Forcefield>
MMFF

> <ForcefieldBase>
MMFF

> <ForcefieldFFML>
<?xml version="1.0" encoding="UTF-8"?>
<!DOCTYPE ffml SYSTEM "Ffml.dtd">
<ffml version="1.0">
<forcefield name="MMFF" derivedFrom="MMFF" base="MMFF">
<atomTypes>
<atomType
name="C100"
element="C"
mass="12.011"
annotation=""/>
<atomType
name="O101"
element="O"
mass="16"
annotation=""/>
<atomType
name="N102"
element="N"
mass="14.007"
annotation=""/>
<atomType
name="F103"
element="F"
mass="18.998"
annotation=""/>
<atomType
name="H104"
element="H"
mass="1.008"
annotation=""/>
</atomTypes>
<parameters>
</parameters>
</forcefield>
</ffml>

> <Initial Potential Energy>
237.76033

> <Initial RMS Gradient>
30.36107

> <Minimization Criteria>
CONJUG> Minimization exiting with gradient tolerance ( 0.0100000) satisfied.

> <CHARMm Energy>
114.24023

> <Potential Energy>
114.24023

> <RMS Gradient>
0.00999

> <Bond Energy>
7.36786

> <Angle Energy>
28.48632

> <STRBend>
0.04878

> <Dihedral Energy>
9.44762

> <OOPLane>
0.12178

> <Van der Waals Energy>
53.11801

> <Electrostatic Energy>
15.64988

> <Hydrogen Bond Energy>
0

> <Solvation Free Energy>
0

> <HasGasteigerCharges>
true

> <REMARK99>
REMARK  99  MacroMolecule created from Mol2 file
REMARK  99  CHEMBL5089733
REMARK  99  PROTEIN
REMARK  99  GASTEIGER
REMARK  99
REMARK  99

$$$$
CHEMBL3335662
  SciTegic05292516403D

 55 57  0  0  0  0            999 V2000
    5.7566  -11.8474    0.3014 C   0  0
    5.6635  -13.1237    0.8482 C   0  0
    6.7620  -13.9929    0.8090 C   0  0
    7.9733  -13.6019    0.2254 C   0  0
    8.0561  -12.2930   -0.2981 C   0  0
    6.9510  -11.4296   -0.2764 C   0  0
    9.3145  -11.7360   -0.8536 C   0  0
   10.3884  -11.8201    0.0143 N   0  0
    9.3025  -11.2425   -1.9722 O   0  0
   11.7134  -11.4052   -0.2220 C   0  0
    9.0920  -14.4731    0.1204 N   0  0
    9.2107  -15.7618    0.6146 C   0  0
   10.5149  -16.4314    0.3370 C   0  0
    8.3577  -16.3888    1.2303 O   0  0
   10.5261  -17.8120    0.1274 C   0  0
   11.7301  -18.4767   -0.1300 C   0  0
   12.9563  -17.7845   -0.1781 C   0  0
   12.9256  -16.3998    0.0607 C   0  0
   11.7227  -15.7292    0.3185 C   0  0
   14.2627  -18.5499   -0.4605 C   0  0
   14.1535  -19.2968   -1.8080 C   0  0
   15.5109  -17.6430   -0.5469 C   0  0
   14.5128  -19.5732    0.6676 C   0  0
   12.6180  -11.5330    0.8362 C   0  0
   13.9635  -11.1445    0.6952 C   0  0
   14.4108  -10.6412   -0.5276 C   0  0
   13.5097  -10.5113   -1.5873 C   0  0
   12.1697  -10.8903   -1.4348 C   0  0
   14.8205  -11.3515    1.8829 C   0  0
   15.7110  -10.3759    2.1310 O   0  0
   14.6467  -12.3003    2.6314 O   0  0
   16.0496  -10.1858   -0.8149 Cl  0  0
    4.9031  -11.1757    0.3299 H   0  0
    4.7301  -13.4539    1.3019 H   0  0
    6.6245  -14.9826    1.2346 H   0  0
    7.0256  -10.4281   -0.6971 H   0  0
   10.1834  -12.1766    0.9441 H   0  0
    9.8674  -14.1310   -0.4368 H   0  0
    9.5979  -18.3796    0.1650 H   0  0
   11.6965  -19.5543   -0.2849 H   0  0
   13.8378  -15.8080    0.0686 H   0  0
   11.7630  -14.6667    0.5355 H   0  0
   15.0893  -19.8146   -2.0495 H   0  0
   13.9358  -18.6014   -2.6273 H   0  0
   13.3634  -20.0553   -1.8004 H   0  0
   16.4110  -18.2293   -0.7669 H   0  0
   15.6951  -17.1167    0.3967 H   0  0
   15.4099  -16.8950   -1.3418 H   0  0
   15.4509  -20.1173    0.5070 H   0  0
   13.7142  -20.3207    0.7314 H   0  0
   14.5773  -19.0769    1.6432 H   0  0
   12.2877  -11.9359    1.7938 H   0  0
   13.8403  -10.1210   -2.5487 H   0  0
   11.5096  -10.7740   -2.2905 H   0  0
   15.8185   -9.6834    1.4474 H   0  0
  1  2  2  0
  1 33  1  0
  2  3  1  0
  2 34  1  0
  3  4  2  0
  3 35  1  0
  4  5  1  0
  4 11  1  0
  5  6  2  0
  5  7  1  0
  6  1  1  0
  6 36  1  0
  7  8  1  0
  7  9  2  0
  8 10  1  0
  8 37  1  0
 10 24  2  0
 11 12  1  0
 11 38  1  0
 12 13  1  0
 12 14  2  0
 13 15  2  0
 15 16  1  0
 15 39  1  0
 16 17  2  0
 16 40  1  0
 17 18  1  0
 17 20  1  0
 18 19  2  0
 18 41  1  0
 19 13  1  0
 19 42  1  0
 20 21  1  0
 20 22  1  0
 20 23  1  0
 21 43  1  0
 21 44  1  0
 21 45  1  0
 22 46  1  0
 22 47  1  0
 22 48  1  0
 23 49  1  0
 23 50  1  0
 23 51  1  0
 24 25  1  0
 24 52  1  0
 25 26  2  0
 25 29  1  0
 26 27  1  0
 26 32  1  0
 27 28  2  0
 27 53  1  0
 28 10  1  0
 28 54  1  0
 29 30  1  0
 29 31  2  0
 30 55  1  0
M  END
> <Name>
CHEMBL3335662

> <Clean Energy>
13.0016

> <chembl_id>
CHEMBL3335662

> <chembl_pref_name>
None

> <efficacy>
0.930674264

> <Forcefield>
MMFF

> <ForcefieldBase>
MMFF

> <ForcefieldFFML>
<?xml version="1.0" encoding="UTF-8"?>
<!DOCTYPE ffml SYSTEM "Ffml.dtd">
<ffml version="1.0">
<forcefield name="MMFF" derivedFrom="MMFF" base="MMFF">
<atomTypes>
<atomType
name="C100"
element="C"
mass="12.011"
annotation=""/>
<atomType
name="N101"
element="N"
mass="14.007"
annotation=""/>
<atomType
name="O102"
element="O"
mass="16"
annotation=""/>
<atomType
name="Cl103"
element="Cl"
mass="35.453"
annotation=""/>
<atomType
name="H104"
element="H"
mass="1.008"
annotation=""/>
</atomTypes>
<parameters>
</parameters>
</forcefield>
</ffml>

> <Initial Potential Energy>
247.06699

> <Initial RMS Gradient>
74.27799

> <Minimization Criteria>
STEEPD> Minimization exiting with gradient tolerance ( 3.0000000) satisfied.

> <CHARMm Energy>
70.96016

> <Potential Energy>
70.96016

> <RMS Gradient>
0.04931

> <Bond Energy>
8.3698

> <Angle Energy>
15.34714

> <STRBend>
1.95697

> <Dihedral Energy>
14.53206

> <OOPLane>
0.25559

> <Van der Waals Energy>
74.33429

> <Electrostatic Energy>
-43.83569

> <Hydrogen Bond Energy>
0

> <Solvation Free Energy>
0

> <HasGasteigerCharges>
true

> <REMARK99>
REMARK  99  MacroMolecule created from Mol2 file
REMARK  99  CHEMBL3335662
REMARK  99  PROTEIN
REMARK  99  GASTEIGER
REMARK  99
REMARK  99

$$$$
CHEMBL3763887
  SciTegic05292516403D

 53 54  0  0  0  0            999 V2000
   -2.3617   -2.5569   -1.7413 F   0  0
   -1.0817   -2.5071   -1.2825 C   0  0
   -0.3045   -2.8764   -2.3372 F   0  0
    1.9390    1.3157   -1.1159 F   0  0
    0.4395   -0.5030   -1.1828 C   0  0
    0.8219    0.7291   -0.6662 C   0  0
    0.0618    1.3569    0.3101 C   0  0
   -1.0924    0.7353    0.7884 C   0  0
   -1.4889   -0.5275    0.3015 C   0  0
   -0.7205   -1.1499   -0.7133 C   0  0
   -2.7198   -1.1757    0.8979 C   0  0
   -3.9436   -0.6388    0.3641 N   0  0
   -5.1234   -1.3137    0.5995 C   0  0
   -6.3852   -0.6410    0.2100 C   0  0
   -5.1691   -2.3945    1.1768 O   0  0
   -7.5521   -1.0310    0.8810 C   0  0
   -8.7522   -0.3692    0.6459 C   0  0
   -8.7924    0.6967   -0.2587 C   0  0
   -7.6405    1.0425   -0.9788 C   0  0
   -6.4391    0.3725   -0.7508 C   0  0
  -10.0459    1.5169   -0.3896 C   0  0
   -9.9282    2.8735    0.3283 C   0  0  1  0  0  0
  -11.1960    3.6228    0.0188 C   0  0
   -9.7655    2.7566    1.8545 C   0  0
   -9.5704    4.1102    2.5288 C   0  0
  -10.9286    4.7941   -0.6189 O   0  0
  -12.3162    3.2259    0.3130 O   0  0
  -12.0922    5.5491   -0.9578 C   0  0
  -11.6458    6.8172   -1.6592 C   0  0
   -0.9645   -3.5022   -0.3637 F   0  0
    1.0667   -0.9599   -1.9469 H   0  0
    0.3854    2.3181    0.6996 H   0  0
   -1.6846    1.2320    1.5577 H   0  0
   -2.7042   -2.2624    0.7692 H   0  0
   -2.7297   -1.0073    1.9825 H   0  0
   -3.9421    0.2933   -0.0211 H   0  0
   -7.5195   -1.8334    1.6160 H   0  0
   -9.6412   -0.6628    1.2017 H   0  0
   -7.6694    1.8530   -1.7044 H   0  0
   -5.5651    0.6576   -1.3267 H   0  0
  -10.2538    1.6705   -1.4574 H   0  0
  -10.9052    0.9508   -0.0055 H   0  0
   -9.0737    3.4293   -0.0792 H   0  0
  -10.6389    2.2615    2.2965 H   0  0
   -8.8925    2.1407    2.0950 H   0  0
   -9.4020    3.9746    3.6020 H   0  0
  -10.4494    4.7506    2.4080 H   0  0
   -8.7025    4.6324    2.1135 H   0  0
  -12.7339    4.9645   -1.6267 H   0  0
  -12.6458    5.8079   -0.0480 H   0  0
  -12.5055    7.4350   -1.9334 H   0  0
  -11.0794    6.5774   -2.5652 H   0  0
  -10.9817    7.4014   -1.0137 H   0  0
  2  1  1  0
  2 30  1  0
  3  2  1  0
  5  6  2  0
  5 31  1  0
  6  4  1  0
  6  7  1  0
  7  8  2  0
  7 32  1  0
  8  9  1  0
  8 33  1  0
  9 10  2  0
  9 11  1  0
 10  2  1  0
 10  5  1  0
 11 12  1  0
 11 34  1  0
 11 35  1  0
 12 13  1  0
 12 36  1  0
 13 14  1  0
 13 15  2  0
 14 16  2  0
 16 17  1  0
 16 37  1  0
 17 18  2  0
 17 38  1  0
 18 19  1  0
 18 21  1  0
 19 20  2  0
 19 39  1  0
 20 14  1  0
 20 40  1  0
 21 22  1  0
 21 41  1  0
 21 42  1  0
 22 23  1  0
 22 24  1  0
 22 43  1  0
 23 26  1  0
 23 27  2  0
 24 25  1  0
 24 44  1  0
 24 45  1  0
 25 46  1  0
 25 47  1  0
 25 48  1  0
 26 28  1  0
 28 29  1  0
 28 49  1  0
 28 50  1  0
 29 51  1  0
 29 52  1  0
 29 53  1  0
M  END
> <Name>
CHEMBL3763887

> <Clean Energy>
29.216101

> <chembl_id>
CHEMBL3763887

> <chembl_pref_name>
None

> <efficacy>
1.120607787

> <Forcefield>
MMFF

> <ForcefieldBase>
MMFF

> <ForcefieldFFML>
<?xml version="1.0" encoding="UTF-8"?>
<!DOCTYPE ffml SYSTEM "Ffml.dtd">
<ffml version="1.0">
<forcefield name="MMFF" derivedFrom="MMFF" base="MMFF">
<atomTypes>
<atomType
name="F100"
element="F"
mass="18.998"
annotation=""/>
<atomType
name="C101"
element="C"
mass="12.011"
annotation=""/>
<atomType
name="N102"
element="N"
mass="14.007"
annotation=""/>
<atomType
name="O103"
element="O"
mass="16"
annotation=""/>
<atomType
name="H104"
element="H"
mass="1.008"
annotation=""/>
</atomTypes>
<parameters>
</parameters>
</forcefield>
</ffml>

> <Initial Potential Energy>
87.74229

> <Initial RMS Gradient>
24.98756

> <Minimization Criteria>
STEEPD> Minimization exiting with gradient tolerance ( 3.0000000) satisfied.

> <CHARMm Energy>
24.50177

> <Potential Energy>
24.50177

> <RMS Gradient>
0.05536

> <Bond Energy>
5.06263

> <Angle Energy>
5.46392

> <STRBend>
0.61816

> <Dihedral Energy>
-3.85534

> <OOPLane>
0.24554

> <Van der Waals Energy>
50.59113

> <Electrostatic Energy>
-33.62429

> <Hydrogen Bond Energy>
0

> <Solvation Free Energy>
0

> <HasGasteigerCharges>
true

> <REMARK99>
REMARK  99  MacroMolecule created from Mol2 file
REMARK  99  CHEMBL3763887
REMARK  99  PROTEIN
REMARK  99  GASTEIGER
REMARK  99
REMARK  99

$$$$
CHEMBL4169557
  SciTegic05292516403D

 52 55  0  0  0  0            999 V2000
    2.8008  -25.9998   -0.2209 C   0  0
    3.8102  -26.9396   -0.2156 O   0  0
    5.0052  -26.4911    0.3143 C   0  0
    6.1456  -26.5951   -0.4927 C   0  0
    6.2531  -25.4191    2.0974 C   0  0
    5.0612  -25.9500    1.6035 C   0  0
    7.3889  -25.4486    1.2778 C   0  0
    7.3284  -26.0404    0.0177 C   0  0
    8.6070  -25.9029   -0.4753 N   0  0
    9.3500  -25.2036    0.4535 C   0  0
    8.6323  -24.9404    1.5273 N   0  0
    9.0947  -26.4044   -1.7404 C   0  0
   10.7632  -24.7766    0.2583 C   0  0
   11.5241  -25.9486   -0.0327 O   0  0
   12.8847  -25.8276   -0.0632 C   0  0
   13.5642  -27.0352   -0.2469 C   0  0
   14.9576  -27.0707   -0.2933 C   0  0
   15.6854  -25.8905   -0.1547 C   0  0
   15.0158  -24.6758    0.0260 C   0  0
   13.6134  -24.6440    0.0669 C   0  0
    2.9631  -24.7556   -0.8293 C   0  0
    1.9459  -23.7936   -0.7584 C   0  0
    0.7401  -24.0994   -0.0921 C   0  0
    0.5712  -25.3765    0.4924 C   0  0
    1.6044  -26.3240    0.4078 C   0  0
   -0.2268  -23.1180    0.0837 N   0  0
    2.1817  -22.4433   -1.3793 C   0  0
   -0.6930  -25.7506    1.2224 C   0  0
   15.7663  -23.4618    0.1693 C   0  0
   16.3748  -22.4796    0.2793 N   0  0
    6.0904  -27.0350   -1.4812 H   0  0
    6.3088  -24.9641    3.0796 H   0  0
    4.1695  -25.9108    2.2230 H   0  0
    9.7549  -25.6610   -2.1935 H   0  0
    8.2540  -26.5836   -2.4142 H   0  0
    9.6301  -27.3383   -1.5537 H   0  0
   10.8285  -24.0633   -0.5711 H   0  0
   11.1187  -24.3059    1.1828 H   0  0
   12.9985  -27.9595   -0.3468 H   0  0
   15.4716  -28.0186   -0.4328 H   0  0
   16.7730  -25.9250   -0.1865 H   0  0
   13.1186  -23.6867    0.2037 H   0  0
    3.8977  -24.5240   -1.3338 H   0  0
    1.4926  -27.3050    0.8618 H   0  0
   -0.2346  -22.2782   -0.4785 H   0  0
   -1.1062  -23.3485    0.5284 H   0  0
    3.1547  -22.3931   -1.8798 H   0  0
    2.1649  -21.6641   -0.6105 H   0  0
    1.4163  -22.2321   -2.1331 H   0  0
   -0.6715  -26.7934    1.5564 H   0  0
   -1.5604  -25.6369    0.5640 H   0  0
   -0.8188  -25.1211    2.1091 H   0  0
  1  2  1  0
  1 21  2  0
  2  3  1  0
  3  4  2  0
  4  8  1  0
  4 31  1  0
  5  6  2  0
  5 32  1  0
  6  3  1  0
  6 33  1  0
  7  5  1  0
  7  8  2  0
  8  9  1  0
  9 10  1  0
  9 12  1  0
 10 11  2  0
 10 13  1  0
 11  7  1  0
 12 34  1  0
 12 35  1  0
 12 36  1  0
 13 14  1  0
 13 37  1  0
 13 38  1  0
 14 15  1  0
 15 16  2  0
 16 17  1  0
 16 39  1  0
 17 18  2  0
 17 40  1  0
 18 19  1  0
 18 41  1  0
 19 20  2  0
 19 29  1  0
 20 15  1  0
 20 42  1  0
 21 22  1  0
 21 43  1  0
 22 23  2  0
 22 27  1  0
 23 24  1  0
 23 26  1  0
 24 25  2  0
 24 28  1  0
 25  1  1  0
 25 44  1  0
 26 45  1  0
 26 46  1  0
 27 47  1  0
 27 48  1  0
 27 49  1  0
 28 50  1  0
 28 51  1  0
 28 52  1  0
 29 30  3  0
M  END
> <Name>
CHEMBL4169557

> <Clean Energy>
74.863098

> <chembl_id>
CHEMBL4169557

> <chembl_pref_name>
None

> <efficacy>
0.92

> <Forcefield>
MMFF

> <ForcefieldBase>
MMFF

> <ForcefieldFFML>
<?xml version="1.0" encoding="UTF-8"?>
<!DOCTYPE ffml SYSTEM "Ffml.dtd">
<ffml version="1.0">
<forcefield name="MMFF" derivedFrom="MMFF" base="MMFF">
<atomTypes>
<atomType
name="C100"
element="C"
mass="12.011"
annotation=""/>
<atomType
name="O101"
element="O"
mass="16"
annotation=""/>
<atomType
name="N102"
element="N"
mass="14.007"
annotation=""/>
<atomType
name="H103"
element="H"
mass="1.008"
annotation=""/>
</atomTypes>
<parameters>
</parameters>
</forcefield>
</ffml>

> <Initial Potential Energy>
294.49719

> <Initial RMS Gradient>
38.00102

> <Minimization Criteria>
STEEPD> Minimization exiting with gradient tolerance ( 3.0000000) satisfied.

> <CHARMm Energy>
74.24891

> <Potential Energy>
74.24891

> <RMS Gradient>
0.03394

> <Bond Energy>
5.55021

> <Angle Energy>
15.22747

> <STRBend>
-0.47328

> <Dihedral Energy>
16.59255

> <OOPLane>
0.72556

> <Van der Waals Energy>
60.66809

> <Electrostatic Energy>
-24.04169

> <Hydrogen Bond Energy>
0

> <Solvation Free Energy>
0

> <HasGasteigerCharges>
true

> <REMARK99>
REMARK  99  MacroMolecule created from Mol2 file
REMARK  99  CHEMBL4169557
REMARK  99  PROTEIN
REMARK  99  GASTEIGER
REMARK  99
REMARK  99

$$$$
CHEMBL3597434
  SciTegic05292516403D

 64 67  0  0  0  0            999 V2000
   -1.8728    1.1169   -0.0525 C   0  0
   -2.0088   -0.2593   -0.2107 C   0  0
   -0.8991   -1.0720   -0.4327 C   0  0
   -0.6038    1.7138   -0.0835 C   0  0
    0.5407    0.9136   -0.2983 C   0  0
    0.3643   -0.4624   -0.4737 C   0  0
    1.6162   -1.0067   -0.6610 N   0  0
    2.5675   -0.0219   -0.6261 C   0  0
    1.9468    1.1880   -0.3802 C   0  0
    2.6337    2.5144   -0.2363 C   0  0
    3.7210    2.4655    0.8198 C   0  0
    3.2564    2.2451    2.0762 O   0  0
    4.9201    2.5573    0.5844 O   0  0
   -3.0551    1.7812    0.1436 O   0  0
   -3.0193    3.1815   -0.0987 C   0  0
   -4.4398    3.7231   -0.0440 C   0  0
   -4.4175    5.2119   -0.3385 C   0  0
   -5.7228    5.7627   -0.1333 O   0  0
   -5.6887    7.0989    0.1868 C   0  0
   -6.6484    7.5421    1.0924 C   0  0
   -6.6353    8.8692    1.5231 C   0  0
   -5.6585    9.7509    1.0553 C   0  0
   -4.6991    9.3143    0.1449 C   0  0
   -4.7540    8.0024   -0.3310 C   0  0
   -3.7487   10.2368   -0.2151 O   0  0
   -2.4921    9.6660   -0.6099 C   0  0
   -1.3672   10.6589   -0.4180 C   0  0
   -0.1417   10.1967    0.0920 C   0  0
    0.9504   11.0504    0.2196 C   0  0
    0.8249   12.3774   -0.1669 C   0  0
   -0.3836   12.8626   -0.6692 C   0  0
   -1.4802   12.0031   -0.7993 C   0  0
    1.8955   -2.4234   -0.8626 C   0  0
    2.1787   13.4243   -0.0245 Cl  0  0
    1.8849   -3.1721    0.4392 C   0  0
    2.9076   -3.8999    0.9059 C   0  0
   -3.0013   -0.7016   -0.1741 H   0  0
   -1.0236   -2.1428   -0.5641 H   0  0
   -0.4733    2.7792    0.0562 H   0  0
    3.6164   -0.2630   -0.7535 H   0  0
    3.0937    2.7928   -1.1918 H   0  0
    1.9344    3.3150    0.0259 H   0  0
    2.2777    2.2088    2.1028 H   0  0
   -2.4192    3.6754    0.6755 H   0  0
   -2.5898    3.3861   -1.0881 H   0  0
   -5.0864    3.1983   -0.7578 H   0  0
   -4.8825    3.5302    0.9411 H   0  0
   -3.6823    5.6844    0.3277 H   0  0
   -4.1198    5.3775   -1.3809 H   0  0
   -7.3953    6.8522    1.4761 H   0  0
   -7.3793    9.2172    2.2344 H   0  0
   -5.6456   10.7794    1.4093 H   0  0
   -4.0578    7.6741   -1.0933 H   0  0
   -2.2699    8.7740   -0.0092 H   0  0
   -2.5359    9.3906   -1.6706 H   0  0
   -0.0256    9.1581    0.3915 H   0  0
    1.8890   10.6656    0.6098 H   0  0
   -0.4761   13.9069   -0.9636 H   0  0
   -2.4189   12.3862   -1.2000 H   0  0
    1.1327   -2.8213   -1.5407 H   0  0
    2.8625   -2.5025   -1.3731 H   0  0
    0.9758   -3.1006    1.0346 H   0  0
    3.8400   -3.9998    0.3584 H   0  0
    2.8334   -4.4124    1.8608 H   0  0
  1  2  2  0
  1 14  1  0
  2  3  1  0
  2 37  1  0
  3  6  2  0
  3 38  1  0
  4  1  1  0
  4 39  1  0
  5  4  2  0
  5  6  1  0
  6  7  1  0
  7  8  1  0
  7 33  1  0
  8  9  2  0
  8 40  1  0
  9  5  1  0
  9 10  1  0
 10 11  1  0
 10 41  1  0
 10 42  1  0
 11 12  1  0
 11 13  2  0
 12 43  1  0
 14 15  1  0
 15 16  1  0
 15 44  1  0
 15 45  1  0
 16 17  1  0
 16 46  1  0
 16 47  1  0
 17 18  1  0
 17 48  1  0
 17 49  1  0
 18 19  1  0
 19 20  2  0
 20 21  1  0
 20 50  1  0
 21 22  2  0
 21 51  1  0
 22 23  1  0
 22 52  1  0
 23 24  2  0
 23 25  1  0
 24 19  1  0
 24 53  1  0
 25 26  1  0
 26 27  1  0
 26 54  1  0
 26 55  1  0
 27 28  2  0
 28 29  1  0
 28 56  1  0
 29 30  2  0
 29 57  1  0
 30 31  1  0
 30 34  1  0
 31 32  2  0
 31 58  1  0
 32 27  1  0
 32 59  1  0
 33 35  1  0
 33 60  1  0
 33 61  1  0
 35 36  2  0
 35 62  1  0
 36 63  1  0
 36 64  1  0
M  END
> <Name>
CHEMBL3597434

> <Clean Energy>
21.9298

> <chembl_id>
CHEMBL3597434

> <chembl_pref_name>
None

> <efficacy>
1.044

> <Forcefield>
MMFF

> <ForcefieldBase>
MMFF

> <ForcefieldFFML>
<?xml version="1.0" encoding="UTF-8"?>
<!DOCTYPE ffml SYSTEM "Ffml.dtd">
<ffml version="1.0">
<forcefield name="MMFF" derivedFrom="MMFF" base="MMFF">
<atomTypes>
<atomType
name="C100"
element="C"
mass="12.011"
annotation=""/>
<atomType
name="N101"
element="N"
mass="14.007"
annotation=""/>
<atomType
name="O102"
element="O"
mass="16"
annotation=""/>
<atomType
name="Cl103"
element="Cl"
mass="35.453"
annotation=""/>
<atomType
name="H104"
element="H"
mass="1.008"
annotation=""/>
</atomTypes>
<parameters>
</parameters>
</forcefield>
</ffml>

> <Initial Potential Energy>
175.20601

> <Initial RMS Gradient>
27.80154

> <Minimization Criteria>
STEEPD> Minimization exiting with gradient tolerance ( 3.0000000) satisfied.

> <CHARMm Energy>
78.03741

> <Potential Energy>
78.03741

> <RMS Gradient>
0.06544

> <Bond Energy>
5.62459

> <Angle Energy>
16.52108

> <STRBend>
-0.08257

> <Dihedral Energy>
1.65748

> <OOPLane>
0.09522

> <Van der Waals Energy>
70.23229

> <Electrostatic Energy>
-16.01067

> <Hydrogen Bond Energy>
0

> <Solvation Free Energy>
0

> <HasGasteigerCharges>
true

> <REMARK99>
REMARK  99  MacroMolecule created from Mol2 file
REMARK  99  CHEMBL3597434
REMARK  99  PROTEIN
REMARK  99  GASTEIGER
REMARK  99
REMARK  99

$$$$
CHEMBL4174598
  SciTegic05292516403D

 76 79  0  0  0  0            999 V2000
    4.5821   -3.0354   -0.0104 C   0  0
    4.2972   -4.3809    0.2839 C   0  0
    5.3038   -5.1891    0.8371 C   0  0
    5.8489   -2.4890    0.2541 C   0  0
    6.8254   -3.3031    0.8137 C   0  0
    6.5495   -4.6396    1.0957 C   0  0
    7.9671   -5.4584    1.7736 S   0  0
    8.9336   -3.9822    1.6482 C   0  0
    8.1464   -2.9490    1.1474 N   0  0
   10.1189   -3.9242    1.9453 O   0  0
    8.7263   -1.6426    0.9271 C   0  0
    9.5576   -1.5780   -0.3576 C   0  0
   10.1913   -0.2934   -0.4190 O   0  0
   11.5582   -0.3509   -0.4582 C   0  0
   12.2590   -1.0508   -1.4393 C   0  0
   13.6583   -1.0169   -1.4550 C   0  0
   14.3666   -0.2719   -0.5009 C   0  0
   13.6479    0.4326    0.4751 C   0  0
   12.2506    0.4028    0.4868 C   0  0
   15.8829   -0.2129   -0.5333 C   0  0
   16.5531   -1.4272    0.1332 C   0  0  2  0  0  0
   18.0167   -1.0650    0.4578 C   0  0
   16.4254   -2.5409   -0.7592 O   0  0
   16.2542   -3.7765   -0.0681 C   0  0
   16.2243   -4.8931   -1.0918 C   0  0
   18.8963   -1.9942   -0.0182 O   0  0
   18.3577   -0.0652    1.0827 O   0  0
    3.0015   -5.0165    0.0018 C   0  0
    1.7887   -4.4538    0.1456 C   0  0
    0.5478   -5.2419    0.0109 C   0  0
   -0.6047   -4.7002   -0.5757 C   0  0
   -1.7939   -5.4452   -0.6588 C   0  0
   -1.8232   -6.7460   -0.1415 C   0  0
   -0.6888   -7.2924    0.4620 C   0  0
    0.4783   -6.5345    0.5439 C   0  0
   -0.5764   -8.5383    1.0147 O   0  0
   -2.8503   -4.8031   -1.2587 O   0  0
   20.2780   -1.7049    0.2390 C   0  0
   21.1134   -2.8120   -0.3729 C   0  0
   -1.7146   -9.3843    0.9386 C   0  0
   -4.0823   -5.5107   -1.3500 C   0  0
    3.8196   -2.4022   -0.4603 H   0  0
    5.1141   -6.2333    1.0714 H   0  0
    6.0430   -1.4486    0.0101 H   0  0
    7.9613   -0.8595    0.9403 H   0  0
    9.3852   -1.4178    1.7762 H   0  0
   10.2729   -2.4098   -0.3841 H   0  0
    8.9073   -1.6769   -1.2341 H   0  0
   11.7308   -1.6086   -2.2065 H   0  0
   14.1992   -1.5644   -2.2256 H   0  0
   14.1696    1.0258    1.2232 H   0  0
   11.7037    0.9690    1.2353 H   0  0
   16.2038   -0.1329   -1.5809 H   0  0
   16.1993    0.7213   -0.0524 H   0  0
   16.0628   -1.6501    1.0904 H   0  0
   17.0796   -3.9357    0.6340 H   0  0
   15.3097   -3.7568    0.4867 H   0  0
   16.0854   -5.8633   -0.6071 H   0  0
   17.1568   -4.9148   -1.6655 H   0  0
   15.4122   -4.7354   -1.8093 H   0  0
    3.0797   -6.0626   -0.2921 H   0  0
    1.6676   -3.4151    0.4373 H   0  0
   -0.5732   -3.6902   -0.9775 H   0  0
   -2.7297   -7.3317   -0.2016 H   0  0
    1.3423   -6.9687    1.0440 H   0  0
   20.5444   -0.7442   -0.2155 H   0  0
   20.4491   -1.6644    1.3204 H   0  0
   22.1795   -2.6331   -0.2076 H   0  0
   20.9296   -2.8833   -1.4500 H   0  0
   20.8457   -3.7814    0.0604 H   0  0
   -1.4549  -10.3391    1.4062 H   0  0
   -1.9877   -9.5866   -0.1024 H   0  0
   -2.5582   -8.9604    1.4933 H   0  0
   -4.8087   -4.8551   -1.8399 H   0  0
   -4.4709   -5.7551   -0.3560 H   0  0
   -3.9751   -6.4093   -1.9661 H   0  0
  1  2  2  0
  1 42  1  0
  2  3  1  0
  2 28  1  0
  3  6  2  0
  3 43  1  0
  4  1  1  0
  4 44  1  0
  5  4  2  0
  5  6  1  0
  6  7  1  0
  7  8  1  0
  8  9  1  0
  8 10  2  0
  9  5  1  0
  9 11  1  0
 11 12  1  0
 11 45  1  0
 11 46  1  0
 12 13  1  0
 12 47  1  0
 12 48  1  0
 13 14  1  0
 14 15  2  0
 15 16  1  0
 15 49  1  0
 16 17  2  0
 16 50  1  0
 17 18  1  0
 17 20  1  0
 18 19  2  0
 18 51  1  0
 19 14  1  0
 19 52  1  0
 20 21  1  0
 20 53  1  0
 20 54  1  0
 21 22  1  0
 21 23  1  0
 21 55  1  0
 22 26  1  0
 22 27  2  0
 23 24  1  0
 24 25  1  0
 24 56  1  0
 24 57  1  0
 25 58  1  0
 25 59  1  0
 25 60  1  0
 26 38  1  0
 28 29  2  0
 28 61  1  0
 29 30  1  0
 29 62  1  0
 30 31  2  0
 31 32  1  0
 31 63  1  0
 32 33  2  0
 32 37  1  0
 33 34  1  0
 33 64  1  0
 34 35  2  0
 34 36  1  0
 35 30  1  0
 35 65  1  0
 36 40  1  0
 37 41  1  0
 38 39  1  0
 38 66  1  0
 38 67  1  0
 39 68  1  0
 39 69  1  0
 39 70  1  0
 40 71  1  0
 40 72  1  0
 40 73  1  0
 41 74  1  0
 41 75  1  0
 41 76  1  0
M  END
> <Name>
CHEMBL4174598

> <Clean Energy>
51.784302

> <chembl_id>
CHEMBL4174598

> <chembl_pref_name>
None

> <efficacy>
1.05

> <Forcefield>
MMFF

> <ForcefieldBase>
MMFF

> <ForcefieldFFML>
<?xml version="1.0" encoding="UTF-8"?>
<!DOCTYPE ffml SYSTEM "Ffml.dtd">
<ffml version="1.0">
<forcefield name="MMFF" derivedFrom="MMFF" base="MMFF">
<atomTypes>
<atomType
name="C100"
element="C"
mass="12.011"
annotation=""/>
<atomType
name="S101"
element="S"
mass="32.066"
annotation=""/>
<atomType
name="N102"
element="N"
mass="14.007"
annotation=""/>
<atomType
name="O103"
element="O"
mass="16"
annotation=""/>
<atomType
name="H104"
element="H"
mass="1.008"
annotation=""/>
</atomTypes>
<parameters>
</parameters>
</forcefield>
</ffml>

> <Initial Potential Energy>
221.72189

> <Initial RMS Gradient>
26.7321

> <Minimization Criteria>
STEEPD> Minimization exiting with gradient tolerance ( 3.0000000) satisfied.

> <CHARMm Energy>
82.33634

> <Potential Energy>
82.33634

> <RMS Gradient>
0.05191

> <Bond Energy>
7.28647

> <Angle Energy>
31.93714

> <STRBend>
0.42149

> <Dihedral Energy>
8.03643

> <OOPLane>
0.12664

> <Van der Waals Energy>
77.7561

> <Electrostatic Energy>
-43.22792

> <Hydrogen Bond Energy>
0

> <Solvation Free Energy>
0

> <HasGasteigerCharges>
true

> <REMARK99>
REMARK  99  MacroMolecule created from Mol2 file
REMARK  99  CHEMBL4174598
REMARK  99  PROTEIN
REMARK  99  GASTEIGER
REMARK  99
REMARK  99

$$$$
CHEMBL48435
  SciTegic05292516403D

 71 75  0  0  0  0            999 V2000
   11.9530   -3.8519    0.0077 S   0  0
   10.2962   -3.9755    0.1233 N   0  0
    3.2044   -2.6571   -0.9214 C   0  0
    3.0806   -0.5804   -1.7558 N   0  0
    1.8273   -2.2128   -0.8996 C   0  0
    3.9305   -1.6124   -1.4698 C   0  0
    1.7883   -0.9175   -1.4226 C   0  0
    9.4838   -4.6901   -0.7644 C   0  0
   -3.0772   -2.2475   -0.1926 C   0  0
    3.6809   -4.0039   -0.4429 C   0  0
    8.0125   -4.4733   -0.6285 C   0  0
    5.1940   -4.1090   -0.5139 C   0  0
   12.3382   -3.6150   -1.3654 O   0  0
   12.3241   -2.9033    1.0407 O   0  0
    6.0185   -3.7763    0.5756 C   0  0
   -1.7890   -2.7238   -0.1792 N   0  0
   12.5696   -5.4412    0.5149 C   0  0
    7.4110   -3.9726    0.5330 C   0  0
    0.5930   -0.1892   -1.5418 C   0  0
    0.6033   -2.7972   -0.4853 C   0  0
   -3.8869   -3.2257    0.3061 O   0  0
   -0.6074   -2.0839   -0.6004 C   0  0
   -3.4882   -1.1608   -0.5699 O   0  0
    9.9250   -5.4521   -1.6099 O   0  0
    7.2041   -4.7793   -1.7335 C   0  0
    5.8133   -4.5985   -1.6775 C   0  0
   -0.5971   -0.7917   -1.1224 C   0  0
    3.4856    0.6829   -2.3320 C   0  0
    5.4258   -3.3452    1.7364 O   0  0
   -5.2775   -2.9048    0.3697 C   0  0
   12.8975   -6.3993   -0.4513 C   0  0
   12.8615   -5.6712    1.8655 C   0  0
    5.7628   -1.9856    2.0217 C   0  0
   -5.6181   -2.0357    1.5749 C   0  0
   -6.0813   -4.1681    0.6517 C   0  0
   13.4597   -6.8732    2.2493 C   0  0
   13.4967   -7.5991   -0.0609 C   0  0
   -7.4091   -3.6478    1.1840 C   0  0
   -7.1005   -2.2921    1.8217 C   0  0
   13.7700   -7.8354    1.2871 C   0  0
    9.9256   -3.2964    0.7761 H   0  0
    4.9916   -1.5261   -1.6734 H   0  0
    3.3339   -4.1837    0.5814 H   0  0
    3.2313   -4.7900   -1.0626 H   0  0
   -1.7523   -3.6647    0.1846 H   0  0
    7.9965   -3.7835    1.4283 H   0  0
    0.5868    0.8150   -1.9512 H   0  0
    0.5938   -3.8052   -0.0819 H   0  0
    7.6598   -5.1714   -2.6450 H   0  0
    5.2131   -4.8560   -2.5497 H   0  0
   -1.5122   -0.2126   -1.2251 H   0  0
    2.9743    0.8056   -3.2901 H   0  0
    4.5675    0.6852   -2.4876 H   0  0
    3.2109    1.4828   -1.6396 H   0  0
   -5.6230   -2.4516   -0.5691 H   0  0
   12.7050   -6.2124   -1.5063 H   0  0
   12.6503   -4.9137    2.6166 H   0  0
    5.0696   -1.6234    2.7868 H   0  0
    5.6582   -1.3461    1.1384 H   0  0
    6.7782   -1.9162    2.4247 H   0  0
   -5.0246   -2.3369    2.4472 H   0  0
   -5.4087   -0.9761    1.3983 H   0  0
   -6.2030   -4.7879   -0.2422 H   0  0
   -5.5784   -4.7880    1.4047 H   0  0
   13.7123   -7.0545    3.2928 H   0  0
   13.7740   -8.3431   -0.8064 H   0  0
   -8.1221   -3.5158    0.3619 H   0  0
   -7.8568   -4.3447    1.8993 H   0  0
   -7.7099   -1.5120    1.3514 H   0  0
   -7.3290   -2.2859    2.8923 H   0  0
   14.2516   -8.7647    1.5860 H   0  0
  2  1  1  0
  2 41  1  0
  3 10  1  0
  4  6  1  0
  5  3  1  0
  6  3  2  0
  6 42  1  0
  7  4  1  0
  7  5  2  0
  8  2  1  0
  9 16  1  0
 10 12  1  0
 10 43  1  0
 10 44  1  0
 11  8  1  0
 12 15  1  0
 12 26  2  0
 13  1  2  0
 14  1  2  0
 15 18  2  0
 16 22  1  0
 16 45  1  0
 17  1  1  0
 18 11  1  0
 18 46  1  0
 19  7  1  0
 19 47  1  0
 20  5  1  0
 20 48  1  0
 21  9  1  0
 22 20  2  0
 23  9  2  0
 24  8  2  0
 25 11  2  0
 25 49  1  0
 26 25  1  0
 26 50  1  0
 27 19  2  0
 27 22  1  0
 27 51  1  0
 28  4  1  0
 28 52  1  0
 28 53  1  0
 28 54  1  0
 29 15  1  0
 30 21  1  0
 30 55  1  0
 31 17  2  0
 31 56  1  0
 32 17  1  0
 32 57  1  0
 33 29  1  0
 33 58  1  0
 33 59  1  0
 33 60  1  0
 34 30  1  0
 34 61  1  0
 34 62  1  0
 35 30  1  0
 35 63  1  0
 35 64  1  0
 36 32  2  0
 36 65  1  0
 37 31  1  0
 37 66  1  0
 38 35  1  0
 38 39  1  0
 38 67  1  0
 38 68  1  0
 39 34  1  0
 39 69  1  0
 39 70  1  0
 40 36  1  0
 40 37  2  0
 40 71  1  0
M  END
> <Name>
CHEMBL48435

> <Clean Energy>
145.143997

> <chembl_id>
CHEMBL48435

> <chembl_pref_name>
None

> <efficacy>
1.329534663

> <Forcefield>
MMFF

> <ForcefieldBase>
MMFF

> <ForcefieldFFML>
<?xml version="1.0" encoding="UTF-8"?>
<!DOCTYPE ffml SYSTEM "Ffml.dtd">
<ffml version="1.0">
<forcefield name="MMFF" derivedFrom="MMFF" base="MMFF">
<atomTypes>
<atomType
name="S100"
element="S"
mass="32.066"
annotation=""/>
<atomType
name="N101"
element="N"
mass="14.007"
annotation=""/>
<atomType
name="C102"
element="C"
mass="12.011"
annotation=""/>
<atomType
name="O103"
element="O"
mass="16"
annotation=""/>
<atomType
name="H104"
element="H"
mass="1.008"
annotation=""/>
</atomTypes>
<parameters>
</parameters>
</forcefield>
</ffml>

> <Initial Potential Energy>
253.80354

> <Initial RMS Gradient>
32.85865

> <Minimization Criteria>
STEEPD> Minimization exiting with gradient tolerance ( 3.0000000) satisfied.

> <CHARMm Energy>
-61.75062

> <Potential Energy>
-61.75062

> <RMS Gradient>
0.04109

> <Bond Energy>
8.65014

> <Angle Energy>
23.26935

> <STRBend>
0.18787

> <Dihedral Energy>
1.35191

> <OOPLane>
0.17335

> <Van der Waals Energy>
66.60852

> <Electrostatic Energy>
-161.99177

> <Hydrogen Bond Energy>
0

> <Solvation Free Energy>
0

> <HasGasteigerCharges>
true

> <REMARK99>
REMARK  99  MacroMolecule created from Mol2 file
REMARK  99  CHEMBL48435
REMARK  99  PROTEIN
REMARK  99  GASTEIGER
REMARK  99
REMARK  99

$$$$
CHEMBL4176941
  SciTegic05292516403D

 48 51  0  0  0  0            999 V2000
   13.6377  -21.4254    0.4663 C   0  0
   14.9894  -21.2417    0.6865 C   0  0
   15.6533  -20.1052    0.3736 N   0  0
   14.9100  -19.1000   -0.1632 C   0  0
   13.5379  -19.1967   -0.4269 C   0  0
   12.8986  -20.3970   -0.0988 C   0  0
   15.5190  -17.8865   -0.4894 O   0  0
   16.8168  -17.7079   -0.0733 C   0  0
   17.8543  -18.4430   -0.6570 C   0  0
   18.3667  -16.4926    1.3432 C   0  0
   17.0619  -16.7290    0.8918 C   0  0
   19.4154  -17.2619    0.8136 C   0  0
   19.1427  -18.2104   -0.1661 C   0  0
   20.3623  -18.7794   -0.4374 N   0  0
   21.3027  -18.1937    0.3832 C   0  0
   20.7533  -17.2440    1.1181 N   0  0
   20.5936  -19.8474   -1.3808 C   0  0
   22.7416  -18.5918    0.4022 C   0  0
   22.7802  -19.9814    0.7292 O   0  0
   23.9745  -20.6311    0.5982 C   0  0
   23.9617  -21.9652    1.0217 C   0  0
   25.1047  -22.7605    0.9292 C   0  0
   26.2733  -22.2302    0.3896 C   0  0
   26.2854  -20.9054   -0.0529 C   0  0
   25.1493  -20.0922    0.0772 C   0  0
   27.5262  -20.3775   -0.6586 C   0  0
   28.6370  -20.6008   -0.2140 O   0  0
   27.2925  -19.6714   -1.7865 O   0  0
   13.0471  -22.5800    0.7946 F   0  0
   12.7719  -18.0572   -1.0262 C   0  0
   15.5799  -22.0314    1.1376 H   0  0
   11.8356  -20.5395   -0.2709 H   0  0
   17.6588  -19.1934   -1.4130 H   0  0
   18.5767  -15.7469    2.1011 H   0  0
   16.2348  -16.1573    1.3077 H   0  0
   21.5842  -19.7340   -1.8270 H   0  0
   19.8483  -19.8007   -2.1784 H   0  0
   20.5173  -20.7980   -0.8474 H   0  0
   23.1653  -18.3948   -0.5893 H   0  0
   23.2843  -18.0174    1.1611 H   0  0
   23.0504  -22.3874    1.4415 H   0  0
   25.0882  -23.7907    1.2782 H   0  0
   27.1673  -22.8454    0.3120 H   0  0
   25.2234  -19.0498   -0.2152 H   0  0
   26.3685  -19.7147   -2.1032 H   0  0
   11.7207  -18.3207   -1.1839 H   0  0
   13.1940  -17.7844   -1.9988 H   0  0
   12.8016  -17.1883   -0.3608 H   0  0
  1  2  2  0
  1 29  1  0
  2  3  1  0
  2 31  1  0
  3  4  2  0
  4  5  1  0
  4  7  1  0
  5  6  2  0
  5 30  1  0
  6  1  1  0
  6 32  1  0
  7  8  1  0
  8  9  2  0
  9 13  1  0
  9 33  1  0
 10 11  2  0
 10 34  1  0
 11  8  1  0
 11 35  1  0
 12 10  1  0
 12 13  2  0
 13 14  1  0
 14 15  1  0
 14 17  1  0
 15 16  2  0
 15 18  1  0
 16 12  1  0
 17 36  1  0
 17 37  1  0
 17 38  1  0
 18 19  1  0
 18 39  1  0
 18 40  1  0
 19 20  1  0
 20 21  2  0
 21 22  1  0
 21 41  1  0
 22 23  2  0
 22 42  1  0
 23 24  1  0
 23 43  1  0
 24 25  2  0
 24 26  1  0
 25 20  1  0
 25 44  1  0
 26 27  2  0
 26 28  1  0
 28 45  1  0
 30 46  1  0
 30 47  1  0
 30 48  1  0
M  END
> <Name>
CHEMBL4176941

> <Clean Energy>
49.2584

> <chembl_id>
CHEMBL4176941

> <chembl_pref_name>
None

> <efficacy>
1

> <Forcefield>
MMFF

> <ForcefieldBase>
MMFF

> <ForcefieldFFML>
<?xml version="1.0" encoding="UTF-8"?>
<!DOCTYPE ffml SYSTEM "Ffml.dtd">
<ffml version="1.0">
<forcefield name="MMFF" derivedFrom="MMFF" base="MMFF">
<atomTypes>
<atomType
name="C100"
element="C"
mass="12.011"
annotation=""/>
<atomType
name="N101"
element="N"
mass="14.007"
annotation=""/>
<atomType
name="O102"
element="O"
mass="16"
annotation=""/>
<atomType
name="F103"
element="F"
mass="18.998"
annotation=""/>
<atomType
name="H104"
element="H"
mass="1.008"
annotation=""/>
</atomTypes>
<parameters>
</parameters>
</forcefield>
</ffml>

> <Initial Potential Energy>
203.6444

> <Initial RMS Gradient>
36.70083

> <Minimization Criteria>
CONJUG> Minimization exiting with gradient tolerance ( 0.0100000) satisfied.

> <CHARMm Energy>
73.23517

> <Potential Energy>
73.23517

> <RMS Gradient>
0.00876

> <Bond Energy>
4.45967

> <Angle Energy>
15.15547

> <STRBend>
0.38391

> <Dihedral Energy>
9.81462

> <OOPLane>
0.0886

> <Van der Waals Energy>
58.95499

> <Electrostatic Energy>
-15.62209

> <Hydrogen Bond Energy>
0

> <Solvation Free Energy>
0

> <HasGasteigerCharges>
true

> <REMARK99>
REMARK  99  MacroMolecule created from Mol2 file
REMARK  99  CHEMBL4176941
REMARK  99  PROTEIN
REMARK  99  GASTEIGER
REMARK  99
REMARK  99

$$$$
CHEMBL4167706
  SciTegic05292516403D

 45 48  0  0  0  0            999 V2000
   -0.4284   -8.5683   -0.7110 C   0  0
    0.7465   -9.0440   -1.2731 C   0  0
    1.9502   -8.9885   -0.6617 N   0  0
    1.9895   -8.4177    0.5702 C   0  0
    0.8573   -7.9253    1.2189 C   0  0
   -0.3688   -8.0002    0.5593 C   0  0
    3.1980   -8.3778    1.2598 O   0  0
    4.3652   -8.3894    0.5256 C   0  0
    5.3483   -9.3078    0.9235 C   0  0
    5.8407   -7.4474   -1.1603 C   0  0
    4.6155   -7.4546   -0.4831 C   0  0
    6.8254   -8.3765   -0.7931 C   0  0
    6.5752   -9.2762    0.2393 C   0  0
    7.7484   -9.9896    0.3482 N   0  0
    8.6215   -9.5438   -0.6244 C   0  0
    8.0805   -8.5563   -1.3134 N   0  0
    8.0289  -11.0275    1.3106 C   0  0
    9.9753  -10.1294   -0.8799 C   0  0
   10.8518   -9.6422    0.1405 O   0  0
   12.1880   -9.6640   -0.1560 C   0  0
   12.8056  -10.5569   -1.0344 C   0  0
   14.1842  -10.4848   -1.2530 C   0  0
   14.9474   -9.5184   -0.5981 C   0  0
   14.3322   -8.6212    0.2797 C   0  0
   12.9565   -8.7138    0.5219 C   0  0
   15.1757   -7.5989    0.9451 C   0  0
   16.3243   -7.8060    1.2950 O   0  0
   14.5552   -6.4066    1.0779 O   0  0
    0.9197   -7.2270    2.7926 Cl  0  0
   -1.3714   -8.6398   -1.2452 H   0  0
    0.7527   -9.4989   -2.2602 H   0  0
   -1.2750   -7.6232    1.0274 H   0  0
    5.1589  -10.0030    1.7331 H   0  0
    6.0491   -6.7320   -1.9473 H   0  0
    3.8625   -6.7206   -0.7531 H   0  0
    8.0991  -11.9796    0.7788 H   0  0
    7.2318  -11.0783    2.0549 H   0  0
    8.9713  -10.7961    1.8129 H   0  0
    9.9346  -11.2236   -0.8464 H   0  0
   10.3085   -9.8081   -1.8749 H   0  0
   12.2426  -11.3284   -1.5513 H   0  0
   14.6665  -11.1841   -1.9329 H   0  0
   16.0208   -9.4652   -0.7715 H   0  0
   12.4626   -8.0595    1.2366 H   0  0
   13.7003   -6.3292    0.6130 H   0  0
  1  2  2  0
  1 30  1  0
  2  3  1  0
  2 31  1  0
  3  4  2  0
  4  5  1  0
  4  7  1  0
  5  6  2  0
  5 29  1  0
  6  1  1  0
  6 32  1  0
  7  8  1  0
  8  9  2  0
  9 13  1  0
  9 33  1  0
 10 11  2  0
 10 34  1  0
 11  8  1  0
 11 35  1  0
 12 10  1  0
 12 13  2  0
 13 14  1  0
 14 15  1  0
 14 17  1  0
 15 16  2  0
 15 18  1  0
 16 12  1  0
 17 36  1  0
 17 37  1  0
 17 38  1  0
 18 19  1  0
 18 39  1  0
 18 40  1  0
 19 20  1  0
 20 21  2  0
 21 22  1  0
 21 41  1  0
 22 23  2  0
 22 42  1  0
 23 24  1  0
 23 43  1  0
 24 25  2  0
 24 26  1  0
 25 20  1  0
 25 44  1  0
 26 27  2  0
 26 28  1  0
 28 45  1  0
M  END
> <Name>
CHEMBL4167706

> <Clean Energy>
43.155899

> <chembl_id>
CHEMBL4167706

> <chembl_pref_name>
None

> <efficacy>
0.93

> <Forcefield>
MMFF

> <ForcefieldBase>
MMFF

> <ForcefieldFFML>
<?xml version="1.0" encoding="UTF-8"?>
<!DOCTYPE ffml SYSTEM "Ffml.dtd">
<ffml version="1.0">
<forcefield name="MMFF" derivedFrom="MMFF" base="MMFF">
<atomTypes>
<atomType
name="C100"
element="C"
mass="12.011"
annotation=""/>
<atomType
name="N101"
element="N"
mass="14.007"
annotation=""/>
<atomType
name="O102"
element="O"
mass="16"
annotation=""/>
<atomType
name="Cl103"
element="Cl"
mass="35.453"
annotation=""/>
<atomType
name="H104"
element="H"
mass="1.008"
annotation=""/>
</atomTypes>
<parameters>
</parameters>
</forcefield>
</ffml>

> <Initial Potential Energy>
233.27453

> <Initial RMS Gradient>
44.70638

> <Minimization Criteria>
STEEPD> Minimization exiting with gradient tolerance ( 3.0000000) satisfied.

> <CHARMm Energy>
80.61448

> <Potential Energy>
80.61448

> <RMS Gradient>
0.03575

> <Bond Energy>
4.66625

> <Angle Energy>
15.36814

> <STRBend>
0.62836

> <Dihedral Energy>
10.13632

> <OOPLane>
0.1491

> <Van der Waals Energy>
55.78467

> <Electrostatic Energy>
-6.11835

> <Hydrogen Bond Energy>
0

> <Solvation Free Energy>
0

> <HasGasteigerCharges>
true

> <REMARK99>
REMARK  99  MacroMolecule created from Mol2 file
REMARK  99  CHEMBL4167706
REMARK  99  PROTEIN
REMARK  99  GASTEIGER
REMARK  99
REMARK  99

$$$$
CHEMBL3597413
  SciTegic05292516403D

 54 57  0  0  0  0            999 V2000
   -1.9305    0.9667    0.2235 C   0  0
   -2.3457   -0.3584    0.0926 C   0  0
   -1.4543   -1.3634   -0.2781 C   0  0
   -0.5895    1.3194    0.0238 C   0  0
    0.3387    0.3145   -0.3360 C   0  0
   -0.1230   -0.9944   -0.4857 C   0  0
    0.9497   -1.7697   -0.8518 N   0  0
    2.0803   -1.0064   -0.9174 C   0  0
    1.7515    0.2947   -0.5870 C   0  0
    2.7152    1.4369   -0.5034 C   0  0
    3.6674    1.2900    0.6664 C   0  0
    3.0542    1.1457    1.8673 O   0  0
    4.8880    1.3087    0.5626 O   0  0
   -2.9186    1.8344    0.5976 O   0  0
   -2.7917    3.1819    0.1450 C   0  0
   -4.1731    3.8100    0.2628 C   0  0
   -4.1791    5.2770   -0.1332 C   0  0
   -5.5176    5.7528    0.0222 O   0  0
   -5.6919    7.1091    0.0026 C   0  0
   -6.9291    7.5517    0.4816 C   0  0
   -7.2322    8.9146    0.5254 C   0  0
   -6.2946    9.8449    0.0874 C   0  0
   -5.0590    9.4056   -0.3864 C   0  0
   -4.7624    8.0407   -0.4593 C   0  0
   -4.1927   10.3593   -0.8605 O   0  0
   -2.9299   10.4480   -0.3201 C   0  0
   -2.0048   11.1555   -1.0930 C   0  0
   -0.6936   11.3274   -0.6494 C   0  0
   -0.2988   10.7822    0.5697 C   0  0
   -1.2202   10.0848    1.3504 C   0  0
   -2.5391    9.9292    0.9155 C   0  0
   -3.3909   -0.6046    0.2669 H   0  0
   -1.7898   -2.3884   -0.3953 H   0  0
   -0.2494    2.3389    0.1558 H   0  0
    0.8998   -2.7628   -1.0323 H   0  0
    3.0301   -1.4538   -1.1795 H   0  0
    3.3080    1.4784   -1.4249 H   0  0
    2.2016    2.3993   -0.4080 H   0  0
    2.0790    1.1026    1.7951 H   0  0
   -2.0769    3.7144    0.7817 H   0  0
   -2.4588    3.2164   -0.8993 H   0  0
   -4.8907    3.2512   -0.3523 H   0  0
   -4.5480    3.7003    1.2890 H   0  0
   -3.4927    5.8286    0.5203 H   0  0
   -3.8698    5.3865   -1.1787 H   0  0
   -7.6693    6.8300    0.8206 H   0  0
   -8.1993    9.2444    0.8959 H   0  0
   -6.5255   10.9067    0.1110 H   0  0
   -3.8078    7.7362   -0.8765 H   0  0
   -2.3124   11.5822   -2.0452 H   0  0
    0.0147   11.8832   -1.2588 H   0  0
    0.7313   10.8773    0.9045 H   0  0
   -0.9020    9.6314    2.2869 H   0  0
   -3.2294    9.3778    1.5467 H   0  0
  1  2  2  0
  1 14  1  0
  2  3  1  0
  2 32  1  0
  3  6  2  0
  3 33  1  0
  4  1  1  0
  4 34  1  0
  5  4  2  0
  5  6  1  0
  6  7  1  0
  7  8  1  0
  7 35  1  0
  8  9  2  0
  8 36  1  0
  9  5  1  0
  9 10  1  0
 10 11  1  0
 10 37  1  0
 10 38  1  0
 11 12  1  0
 11 13  2  0
 12 39  1  0
 14 15  1  0
 15 16  1  0
 15 40  1  0
 15 41  1  0
 16 17  1  0
 16 42  1  0
 16 43  1  0
 17 18  1  0
 17 44  1  0
 17 45  1  0
 18 19  1  0
 19 20  2  0
 20 21  1  0
 20 46  1  0
 21 22  2  0
 21 47  1  0
 22 23  1  0
 22 48  1  0
 23 24  2  0
 23 25  1  0
 24 19  1  0
 24 49  1  0
 25 26  1  0
 26 27  2  0
 27 28  1  0
 27 50  1  0
 28 29  2  0
 28 51  1  0
 29 30  1  0
 29 52  1  0
 30 31  2  0
 30 53  1  0
 31 26  1  0
 31 54  1  0
M  END
> <Name>
CHEMBL3597413

> <Clean Energy>
31.4848

> <chembl_id>
CHEMBL3597413

> <chembl_pref_name>
None

> <efficacy>
0.925

> <Forcefield>
MMFF

> <ForcefieldBase>
MMFF

> <ForcefieldFFML>
<?xml version="1.0" encoding="UTF-8"?>
<!DOCTYPE ffml SYSTEM "Ffml.dtd">
<ffml version="1.0">
<forcefield name="MMFF" derivedFrom="MMFF" base="MMFF">
<atomTypes>
<atomType
name="C100"
element="C"
mass="12.011"
annotation=""/>
<atomType
name="N101"
element="N"
mass="14.007"
annotation=""/>
<atomType
name="O102"
element="O"
mass="16"
annotation=""/>
<atomType
name="H103"
element="H"
mass="1.008"
annotation=""/>
</atomTypes>
<parameters>
</parameters>
</forcefield>
</ffml>

> <Initial Potential Energy>
207.76167

> <Initial RMS Gradient>
43.21095

> <Minimization Criteria>
STEEPD> Minimization exiting with gradient tolerance ( 3.0000000) satisfied.

> <CHARMm Energy>
56.17126

> <Potential Energy>
56.17126

> <RMS Gradient>
0.17465

> <Bond Energy>
4.59458

> <Angle Energy>
20.03792

> <STRBend>
-0.60645

> <Dihedral Energy>
5.14249

> <OOPLane>
0.08059

> <Van der Waals Energy>
58.77141

> <Electrostatic Energy>
-31.84929

> <Hydrogen Bond Energy>
0

> <Solvation Free Energy>
0

> <HasGasteigerCharges>
true

> <REMARK99>
REMARK  99  MacroMolecule created from Mol2 file
REMARK  99  CHEMBL3597413
REMARK  99  PROTEIN
REMARK  99  GASTEIGER
REMARK  99
REMARK  99

$$$$
CHEMBL593801
  SciTegic05292516403D

 56 59  0  0  0  0            999 V2000
   -3.3527  -15.8232    0.9666 C   0  0
   -4.1313  -16.3929   -0.0482 C   0  0
   -3.7342  -16.2419   -1.3822 C   0  0
   -2.5395  -15.5902   -1.6887 C   0  0
   -1.7350  -15.0649   -0.6702 C   0  0
   -2.1660  -15.1613    0.6571 C   0  0
   -0.3854  -14.4739   -0.9926 C   0  0
    0.7478  -15.4262   -0.5843 C   0  0
    2.0768  -14.9672   -1.1711 C   0  0
    3.2621  -15.7367   -0.7007 C   0  0
    3.5497  -17.0843   -0.7553 C   0  0
    4.8242  -17.2631   -0.2888 O   0  0
    5.2663  -15.9970    0.0152 C   0  0
    4.3422  -15.0688   -0.1697 N   0  0
    6.6495  -15.8618    0.4738 C   0  0
    7.4829  -16.9735    0.6773 C   0  0
    8.8081  -16.8114    1.0970 C   0  0
    9.3182  -15.5337    1.3197 C   0  0
    8.5052  -14.4187    1.1258 C   0  0
    7.1815  -14.5832    0.7073 C   0  0
    2.8265  -18.2876   -1.2037 C   0  0
   -5.3330  -17.2304    0.3104 C   0  0
   -5.1363  -18.7213    0.0003 C   0  0  1  0  0  0
   -3.8781  -19.2902    0.6291 C   0  0
   -2.8669  -19.5379   -0.0182 O   0  0
   -3.9235  -19.4903    1.9685 O   0  0
   -6.2930  -19.4959    0.4179 N   0  0
   -6.6003  -19.5802    1.7363 N   0  0
   -7.6998  -20.3426    1.7523 C   0  0
   -8.0903  -20.7432    0.4620 C   0  0
   -7.1631  -20.1764   -0.3810 C   0  0
   -3.6374  -15.9245    2.0118 H   0  0
   -4.3273  -16.6636   -2.1910 H   0  0
   -2.2172  -15.5273   -2.7256 H   0  0
   -1.5547  -14.7602    1.4631 H   0  0
   -0.3271  -14.2564   -2.0665 H   0  0
   -0.2774  -13.5108   -0.4784 H   0  0
    0.8156  -15.4776    0.5099 H   0  0
    0.5258  -16.4434   -0.9308 H   0  0
    2.0357  -15.0280   -2.2660 H   0  0
    2.2299  -13.9082   -0.9267 H   0  0
    7.0979  -17.9782    0.5117 H   0  0
    9.4401  -17.6830    1.2494 H   0  0
   10.3486  -15.4077    1.6449 H   0  0
    8.8950  -13.4194    1.2991 H   0  0
    6.5489  -13.7087    0.5584 H   0  0
    3.5154  -19.1191   -1.3828 H   0  0
    2.2869  -18.0916   -2.1354 H   0  0
    2.1034  -18.6016   -0.4450 H   0  0
   -5.5679  -17.0872    1.3738 H   0  0
   -6.2048  -16.8454   -0.2355 H   0  0
   -5.0444  -18.8691   -1.0841 H   0  0
   -4.8466  -19.4105    2.3197 H   0  0
   -8.1703  -20.5778    2.6998 H   0  0
   -8.9342  -21.3600    0.1841 H   0  0
   -7.0608  -20.2095   -1.4578 H   0  0
  1  2  2  0
  1 32  1  0
  2  3  1  0
  2 22  1  0
  3  4  2  0
  3 33  1  0
  4  5  1  0
  4 34  1  0
  5  6  2  0
  5  7  1  0
  6  1  1  0
  6 35  1  0
  7  8  1  0
  7 36  1  0
  7 37  1  0
  8  9  1  0
  8 38  1  0
  8 39  1  0
  9 10  1  0
  9 40  1  0
  9 41  1  0
 10 11  2  0
 11 12  1  0
 11 21  1  0
 12 13  1  0
 13 14  2  0
 13 15  1  0
 14 10  1  0
 15 16  2  0
 16 17  1  0
 16 42  1  0
 17 18  2  0
 17 43  1  0
 18 19  1  0
 18 44  1  0
 19 20  2  0
 19 45  1  0
 20 15  1  0
 20 46  1  0
 21 47  1  0
 21 48  1  0
 21 49  1  0
 22 23  1  0
 22 50  1  0
 22 51  1  0
 23 24  1  0
 23 27  1  0
 23 52  1  0
 24 25  2  0
 24 26  1  0
 26 53  1  0
 27 28  1  0
 28 29  2  0
 29 30  1  0
 29 54  1  0
 30 31  2  0
 30 55  1  0
 31 27  1  0
 31 56  1  0
M  END
> <Name>
CHEMBL593801

> <Clean Energy>
64.425301

> <chembl_id>
CHEMBL593801

> <chembl_pref_name>
None

> <efficacy>
0.989130435

> <Forcefield>
MMFF

> <ForcefieldBase>
MMFF

> <ForcefieldFFML>
<?xml version="1.0" encoding="UTF-8"?>
<!DOCTYPE ffml SYSTEM "Ffml.dtd">
<ffml version="1.0">
<forcefield name="MMFF" derivedFrom="MMFF" base="MMFF">
<atomTypes>
<atomType
name="C100"
element="C"
mass="12.011"
annotation=""/>
<atomType
name="O101"
element="O"
mass="16"
annotation=""/>
<atomType
name="N102"
element="N"
mass="14.007"
annotation=""/>
<atomType
name="H103"
element="H"
mass="1.008"
annotation=""/>
</atomTypes>
<parameters>
</parameters>
</forcefield>
</ffml>

> <Initial Potential Energy>
122.08455

> <Initial RMS Gradient>
28.49044

> <Minimization Criteria>
STEEPD> Minimization exiting with gradient tolerance ( 3.0000000) satisfied.

> <CHARMm Energy>
38.19726

> <Potential Energy>
38.19726

> <RMS Gradient>
0.08371

> <Bond Energy>
4.81464

> <Angle Energy>
5.5845

> <STRBend>
0.28443

> <Dihedral Energy>
-0.47589

> <OOPLane>
0.11512

> <Van der Waals Energy>
46.8865

> <Electrostatic Energy>
-19.01204

> <Hydrogen Bond Energy>
0

> <Solvation Free Energy>
0

> <HasGasteigerCharges>
true

> <REMARK99>
REMARK  99  MacroMolecule created from Mol2 file
REMARK  99  CHEMBL593801
REMARK  99  PROTEIN
REMARK  99  GASTEIGER
REMARK  99
REMARK  99

$$$$
CHEMBL492047
  SciTegic05292516403D

 44 46  0  0  0  0            999 V2000
    9.2342   -6.1660   -1.1127 C   0  0
    9.0811   -7.3626   -0.4158 C   0  0
   10.1320   -7.8745    0.3523 C   0  0
   11.3449   -7.1713    0.4031 C   0  0
   11.5146   -5.9693   -0.3012 C   0  0
   10.4427   -5.4732   -1.0551 C   0  0
   12.7854   -5.2484   -0.2577 C   0  0
   14.0630   -5.7450    0.1126 C   0  0
   12.8764   -3.9528   -0.5970 N   0  0
   14.1990   -3.6004   -0.4367 O   0  0
   14.9172   -4.6762   -0.0117 C   0  0
   16.3424   -4.4692    0.1975 C   0  0
   17.2007   -5.5633    0.3973 C   0  0
   18.5687   -5.3757    0.6041 C   0  0
   19.0938   -4.0893    0.6183 C   0  0
   18.2563   -2.9949    0.4238 C   0  0
   16.8914   -3.1798    0.2114 C   0  0
    9.9706   -9.1829    1.0940 C   0  0
   10.5966  -10.3493    0.3234 C   0  0  2  0  0  0
   10.0469  -11.6560    0.8978 C   0  0
   12.0316  -10.3292    0.5089 O   0  0
   12.7248  -10.6830   -0.6929 C   0  0
   14.2121  -10.6508   -0.4043 C   0  0
   10.9714  -12.3305    1.6279 O   0  0
    8.9035  -12.0587    0.7428 O   0  0
    8.4120   -5.7688   -1.7026 H   0  0
    8.1314   -7.8885   -0.4739 H   0  0
   12.1543   -7.5732    1.0084 H   0  0
   10.5419   -4.5414   -1.6095 H   0  0
   14.3234   -6.7436    0.4254 H   0  0
   16.8157   -6.5797    0.3879 H   0  0
   19.2262   -6.2288    0.7543 H   0  0
   20.1582   -3.9319    0.7769 H   0  0
   18.6674   -1.9888    0.4354 H   0  0
   16.2707   -2.2973    0.0623 H   0  0
   10.4322   -9.0837    2.0853 H   0  0
    8.9023   -9.3607    1.2715 H   0  0
   10.3402  -10.3145   -0.7434 H   0  0
   12.4237  -11.6868   -1.0113 H   0  0
   12.4845   -9.9621   -1.4822 H   0  0
   14.7883  -10.9177   -1.2944 H   0  0
   14.4629  -11.3479    0.4017 H   0  0
   14.5179   -9.6540   -0.0700 H   0  0
   11.8081  -11.8088    1.6202 H   0  0
  1  2  2  0
  1 26  1  0
  2  3  1  0
  2 27  1  0
  3  4  2  0
  3 18  1  0
  4  5  1  0
  4 28  1  0
  5  6  2  0
  5  7  1  0
  6  1  1  0
  6 29  1  0
  7  8  1  0
  7  9  2  0
  8 11  2  0
  8 30  1  0
  9 10  1  0
 10 11  1  0
 11 12  1  0
 12 13  2  0
 13 14  1  0
 13 31  1  0
 14 15  2  0
 14 32  1  0
 15 16  1  0
 15 33  1  0
 16 17  2  0
 16 34  1  0
 17 12  1  0
 17 35  1  0
 18 19  1  0
 18 36  1  0
 18 37  1  0
 19 20  1  0
 19 21  1  0
 19 38  1  0
 20 24  1  0
 20 25  2  0
 21 22  1  0
 22 23  1  0
 22 39  1  0
 22 40  1  0
 23 41  1  0
 23 42  1  0
 23 43  1  0
 24 44  1  0
M  END
> <Name>
CHEMBL492047

> <Clean Energy>
41.622398

> <chembl_id>
CHEMBL492047

> <chembl_pref_name>
None

> <efficacy>
1.06

> <Forcefield>
MMFF

> <ForcefieldBase>
MMFF

> <ForcefieldFFML>
<?xml version="1.0" encoding="UTF-8"?>
<!DOCTYPE ffml SYSTEM "Ffml.dtd">
<ffml version="1.0">
<forcefield name="MMFF" derivedFrom="MMFF" base="MMFF">
<atomTypes>
<atomType
name="C100"
element="C"
mass="12.011"
annotation=""/>
<atomType
name="N101"
element="N"
mass="14.007"
annotation=""/>
<atomType
name="O102"
element="O"
mass="16"
annotation=""/>
<atomType
name="H103"
element="H"
mass="1.008"
annotation=""/>
</atomTypes>
<parameters>
</parameters>
</forcefield>
</ffml>

> <Initial Potential Energy>
143.34824

> <Initial RMS Gradient>
31.61683

> <Minimization Criteria>
STEEPD> Minimization exiting with gradient tolerance ( 3.0000000) satisfied.

> <CHARMm Energy>
63.18458

> <Potential Energy>
63.18458

> <RMS Gradient>
0.09259

> <Bond Energy>
4.44581

> <Angle Energy>
3.64349

> <STRBend>
0.5051

> <Dihedral Energy>
0.94684

> <OOPLane>
0.00945

> <Van der Waals Energy>
43.89581

> <Electrostatic Energy>
9.73809

> <Hydrogen Bond Energy>
0

> <Solvation Free Energy>
0

> <HasGasteigerCharges>
true

> <REMARK99>
REMARK  99  MacroMolecule created from Mol2 file
REMARK  99  CHEMBL492047
REMARK  99  PROTEIN
REMARK  99  GASTEIGER
REMARK  99
REMARK  99

$$$$
CHEMBL86658
  SciTegic05292516403D

 55 58  0  0  0  0            999 V2000
    3.9333    2.8579    3.1563 C   0  0
    3.2814    3.8294    2.3899 C   0  0
    2.9762    3.5630    1.0417 C   0  0
    3.3226    2.3208    0.5131 C   0  0
    3.9995    1.3466    1.2691 C   0  0
    4.3051    1.6408    2.5981 C   0  0
    2.3365    4.3120    0.0072 C   0  0
    2.2588    3.4963   -1.1224 C   0  0
    2.8015    2.2760   -0.7677 N   0  0
    1.7929    5.6104   -0.0564 C   0  0
    1.1974    6.0547   -1.2407 C   0  0
    1.1326    5.2272   -2.3555 C   0  0
    1.6517    3.9313   -2.3138 C   0  0
    2.6605    1.0487   -1.5383 C   0  0
    1.5893    0.1567   -0.9131 C   0  0
    1.2275   -0.8807   -1.8250 O   0  0
    0.2038   -1.6890   -1.4008 C   0  0
   -0.4709   -2.3724   -2.4103 C   0  0
   -1.5254   -3.2336   -2.0984 C   0  0
   -1.9129   -3.4378   -0.7673 C   0  0
   -1.2164   -2.7685    0.2435 C   0  0
   -0.1715   -1.8936   -0.0713 C   0  0
   -3.0144   -4.4189   -0.4401 C   0  0
   -4.1666   -3.8978    0.4345 C   0  0  1  0  0  0
   -5.0097   -2.9083   -0.3734 C   0  0
   -4.4918   -1.6600   -0.3982 O   0  0
   -6.0702   -3.1448   -0.9372 O   0  0
   -4.9185   -5.0627    0.8327 O   0  0
   -5.8781   -4.7943    1.8548 C   0  0
   -6.5826   -6.0926    2.1946 C   0  0
    4.1888    3.0787    4.1906 H   0  0
    3.0461    4.7955    2.8317 H   0  0
    4.2488    0.3765    0.8495 H   0  0
    4.8550    0.9227    3.2049 H   0  0
    1.8578    6.2770    0.8006 H   0  0
    0.7999    7.0659   -1.2924 H   0  0
    0.6761    5.5991   -3.2710 H   0  0
    1.5588    3.2785   -3.1764 H   0  0
    2.4113    1.2944   -2.5745 H   0  0
    3.6335    0.5452   -1.5648 H   0  0
    1.9934   -0.2812    0.0061 H   0  0
    0.6998    0.7531   -0.6686 H   0  0
   -0.1782   -2.2342   -3.4480 H   0  0
   -2.0327   -3.7563   -2.9073 H   0  0
   -1.4669   -2.9301    1.2898 H   0  0
    0.3394   -1.4063    0.7523 H   0  0
   -3.4356   -4.8261   -1.3701 H   0  0
   -2.5467   -5.2817    0.0548 H   0  0
   -3.7976   -3.4019    1.3393 H   0  0
   -5.1274   -1.1705   -0.9630 H   0  0
   -5.3691   -4.4057    2.7434 H   0  0
   -6.6093   -4.0570    1.5097 H   0  0
   -7.3351   -5.9372    2.9727 H   0  0
   -5.8628   -6.8405    2.5436 H   0  0
   -7.0715   -6.5098    1.3081 H   0  0
  1  2  2  0
  1  6  1  0
  1 31  1  0
  2  3  1  0
  2 32  1  0
  3  4  2  0
  4  5  1  0
  4  9  1  0
  5  6  2  0
  5 33  1  0
  6 34  1  0
  7  3  1  0
  7  8  2  0
  7 10  1  0
  8  9  1  0
  8 13  1  0
 10 11  2  0
 10 35  1  0
 11 12  1  0
 11 36  1  0
 12 13  2  0
 12 37  1  0
 13 38  1  0
 14  9  1  0
 14 15  1  0
 14 39  1  0
 14 40  1  0
 15 16  1  0
 15 41  1  0
 15 42  1  0
 17 16  1  0
 17 18  2  0
 17 22  1  0
 18 19  1  0
 18 43  1  0
 19 20  2  0
 19 44  1  0
 20 21  1  0
 20 23  1  0
 21 22  2  0
 21 45  1  0
 22 46  1  0
 23 24  1  0
 23 47  1  0
 23 48  1  0
 24 25  1  0
 24 28  1  0
 24 49  1  0
 25 26  1  0
 25 27  2  0
 26 50  1  0
 29 28  1  0
 29 30  1  0
 29 51  1  0
 29 52  1  0
 30 53  1  0
 30 54  1  0
 30 55  1  0
M  END
> <Name>
CHEMBL86658

> <Clean Energy>
45.612202

> <chembl_id>
CHEMBL86658

> <chembl_pref_name>
None

> <efficacy>
1.0805

> <Forcefield>
MMFF

> <ForcefieldBase>
MMFF

> <ForcefieldFFML>
<?xml version="1.0" encoding="UTF-8"?>
<!DOCTYPE ffml SYSTEM "Ffml.dtd">
<ffml version="1.0">
<forcefield name="MMFF" derivedFrom="MMFF" base="MMFF">
<atomTypes>
<atomType
name="C100"
element="C"
mass="12.011"
annotation=""/>
<atomType
name="N101"
element="N"
mass="14.007"
annotation=""/>
<atomType
name="O102"
element="O"
mass="16"
annotation=""/>
<atomType
name="H103"
element="H"
mass="1.008"
annotation=""/>
</atomTypes>
<parameters>
</parameters>
</forcefield>
</ffml>

> <Initial Potential Energy>
194.44653

> <Initial RMS Gradient>
36.72813

> <Minimization Criteria>
STEEPD> Minimization exiting with gradient tolerance ( 3.0000000) satisfied.

> <CHARMm Energy>
66.99079

> <Potential Energy>
66.99079

> <RMS Gradient>
0.08384

> <Bond Energy>
6.09341

> <Angle Energy>
13.46371

> <STRBend>
-0.52222

> <Dihedral Energy>
2.21335

> <OOPLane>
0.1308

> <Van der Waals Energy>
56.94894

> <Electrostatic Energy>
-11.33721

> <Hydrogen Bond Energy>
0

> <Solvation Free Energy>
0

> <HasGasteigerCharges>
true

> <REMARK99>
REMARK  99  MacroMolecule created from Mol2 file
REMARK  99  CHEMBL86658
REMARK  99  PROTEIN
REMARK  99  GASTEIGER
REMARK  99
REMARK  99

$$$$
CHEMBL373874
  SciTegic05292516403D

 50 52  0  0  0  0            999 V2000
   14.4872   -9.8145   -1.3870 C   0  0
   14.2317  -11.1499   -1.1118 C   0  0
   15.2231  -12.0453   -0.9058 N   0  0
   16.4976  -11.6012   -0.9582 C   0  0
   16.8516  -10.2793   -1.1891 C   0  0
   15.8126   -9.3752   -1.4189 C   0  0
   12.9860  -11.7078   -1.0561 O   0  0
   11.9031  -10.8488   -0.6914 C   0  0
   10.7521  -11.7366   -0.2177 C   0  0
    9.5329  -10.9941    0.2031 C   0  0
    9.3638  -10.0654    1.2081 C   0  0
    8.0439   -9.7158    1.2411 O   0  0
    7.4534  -10.4748    0.2588 C   0  0
    8.3126  -11.2392   -0.3947 N   0  0
    6.0088  -10.3312    0.0904 C   0  0
    5.2632   -9.4179    0.8538 C   0  0
    3.8821   -9.2998    0.6808 C   0  0
    3.2293  -10.0944   -0.2586 C   0  0
    3.9488  -11.0076   -1.0238 C   0  0
    5.3315  -11.1234   -0.8503 C   0  0
   10.2484   -9.4235    2.1961 C   0  0
   18.2947   -9.8361   -1.1913 C   0  0
   18.6455   -9.0123    0.0574 C   0  0  2  0  0  0
   19.3676   -7.7260   -0.3428 C   0  0
   20.4868   -7.5235    0.3991 O   0  0
   19.0233   -6.9384   -1.2099 O   0  0
   19.5650   -9.7258    0.9325 O   0  0
   18.8733  -10.6411    1.7838 C   0  0
   13.6923   -9.1092   -1.5945 H   0  0
   17.2485  -12.3716   -0.7986 H   0  0
   16.0247   -8.3297   -1.6366 H   0  0
   12.2040  -10.1688    0.1149 H   0  0
   11.5928  -10.2611   -1.5635 H   0  0
   10.4949  -12.4433   -1.0173 H   0  0
   11.0968  -12.3602    0.6174 H   0  0
    5.7589   -8.7906    1.5919 H   0  0
    3.3159   -8.5903    1.2794 H   0  0
    2.1553  -10.0043   -0.3935 H   0  0
    3.4369  -11.6303   -1.7535 H   0  0
    5.8827  -11.8427   -1.4537 H   0  0
    9.6896   -9.1214    3.0874 H   0  0
   10.7150   -8.5325    1.7655 H   0  0
   11.0407  -10.1087    2.5130 H   0  0
   18.9474  -10.7154   -1.2626 H   0  0
   18.4571   -9.2689   -2.1164 H   0  0
   17.7712   -8.6939    0.6393 H   0  0
   20.6468   -8.3173    0.9625 H   0  0
   19.6021  -11.0724    2.4755 H   0  0
   18.4343  -11.4536    1.2021 H   0  0
   18.1052  -10.1253    2.3675 H   0  0
  1  2  2  0
  1 29  1  0
  2  3  1  0
  2  7  1  0
  3  4  2  0
  4  5  1  0
  4 30  1  0
  5  6  2  0
  5 22  1  0
  6  1  1  0
  6 31  1  0
  7  8  1  0
  8  9  1  0
  8 32  1  0
  8 33  1  0
  9 10  1  0
  9 34  1  0
  9 35  1  0
 10 11  2  0
 11 12  1  0
 11 21  1  0
 12 13  1  0
 13 14  2  0
 13 15  1  0
 14 10  1  0
 15 16  2  0
 16 17  1  0
 16 36  1  0
 17 18  2  0
 17 37  1  0
 18 19  1  0
 18 38  1  0
 19 20  2  0
 19 39  1  0
 20 15  1  0
 20 40  1  0
 21 41  1  0
 21 42  1  0
 21 43  1  0
 22 23  1  0
 22 44  1  0
 22 45  1  0
 23 24  1  0
 23 27  1  0
 23 46  1  0
 24 25  1  0
 24 26  2  0
 25 47  1  0
 27 28  1  0
 28 48  1  0
 28 49  1  0
 28 50  1  0
M  END
> <Name>
CHEMBL373874

> <Clean Energy>
31.9839

> <chembl_id>
CHEMBL373874

> <chembl_pref_name>
None

> <efficacy>
1.065217391

> <Forcefield>
MMFF

> <ForcefieldBase>
MMFF

> <ForcefieldFFML>
<?xml version="1.0" encoding="UTF-8"?>
<!DOCTYPE ffml SYSTEM "Ffml.dtd">
<ffml version="1.0">
<forcefield name="MMFF" derivedFrom="MMFF" base="MMFF">
<atomTypes>
<atomType
name="C100"
element="C"
mass="12.011"
annotation=""/>
<atomType
name="N101"
element="N"
mass="14.007"
annotation=""/>
<atomType
name="O102"
element="O"
mass="16"
annotation=""/>
<atomType
name="H103"
element="H"
mass="1.008"
annotation=""/>
</atomTypes>
<parameters>
</parameters>
</forcefield>
</ffml>

> <Initial Potential Energy>
141.76357

> <Initial RMS Gradient>
27.61063

> <Minimization Criteria>
STEEPD> Minimization exiting with gradient tolerance ( 3.0000000) satisfied.

> <CHARMm Energy>
61.53783

> <Potential Energy>
61.53783

> <RMS Gradient>
0.0101

> <Bond Energy>
4.37679

> <Angle Energy>
10.88642

> <STRBend>
0.88521

> <Dihedral Energy>
3.07935

> <OOPLane>
0.02856

> <Van der Waals Energy>
46.96468

> <Electrostatic Energy>
-4.68318

> <Hydrogen Bond Energy>
0

> <Solvation Free Energy>
0

> <HasGasteigerCharges>
true

> <REMARK99>
REMARK  99  MacroMolecule created from Mol2 file
REMARK  99  CHEMBL373874
REMARK  99  PROTEIN
REMARK  99  GASTEIGER
REMARK  99
REMARK  99

$$$$
CHEMBL1935492
  SciTegic05292516403D

 66 68  0  0  0  0            999 V2000
    9.9402    1.2098    1.9007 C   0  0
    8.9339    1.9126    2.5193 C   0  0
    7.8174    1.8195    1.7410 O   0  0
    8.1830    1.0449    0.6494 C   0  0
    9.4514    0.6597    0.7384 N   0  0
    8.8105    2.6842    3.7670 C   0  0
   11.3496    0.9907    2.3149 C   0  0
   12.3251    1.9278    1.6065 C   0  0
   13.6447    1.6394    2.0957 O   0  0
   14.6261    2.0049    1.2175 C   0  0
   15.5379    1.0181    0.8597 C   0  0
   15.7892    3.5830   -0.1918 C   0  0
   14.7614    3.2939    0.7116 C   0  0
    7.3034    0.7180   -0.4453 C   0  0
    6.0922    1.3170   -0.4648 C   0  0
    4.9897    1.1294   -1.4681 C   0  0
    7.7613   -0.2272   -1.5330 C   0  0
   16.6915    2.5861   -0.5826 C   0  0
   16.5649    1.2975   -0.0531 C   0  0
   17.4305    0.1799   -0.5419 C   0  0
   18.7269    0.5708   -1.1007 N   0  0
   19.0097    1.9987   -1.4198 C   0  0  1  0  0  0
   17.7418    2.8429   -1.6310 C   0  0
   19.6940   -0.3636   -1.4592 C   0  0
   19.3542   -1.7848   -1.2283 C   0  0
   20.8068   -0.0471   -1.8669 O   0  0
   20.2216   -2.5653   -0.5692 C   0  0
   19.8893   -3.9205   -0.1994 C   0  0
   20.7085   -4.6964    0.5216 C   0  0
   20.3767   -6.0932    0.9366 C   0  0
   19.9528    2.6960   -0.4153 C   0  0
   20.3860    1.9108    0.6011 O   0  0
   20.3343    3.8561   -0.5259 O   0  0
    4.9113    2.3016   -2.4327 C   0  0
    8.3805    2.0621    4.5576 H   0  0
    8.1639    3.5557    3.6246 H   0  0
    9.7875    3.0427    4.1053 H   0  0
   11.4498    1.1106    3.4009 H   0  0
   11.6330   -0.0498    2.1114 H   0  0
   12.2623    1.7748    0.5203 H   0  0
   12.0783    2.9722    1.8329 H   0  0
   15.4203    0.0177    1.2703 H   0  0
   15.8749    4.5904   -0.5946 H   0  0
   14.0792    4.0820    1.0130 H   0  0
    5.8312    2.0147    0.3325 H   0  0
    5.0932    0.1945   -2.0266 H   0  0
    4.0412    1.0459   -0.9237 H   0  0
    7.1432   -0.1893   -2.4330 H   0  0
    7.7630   -1.2562   -1.1587 H   0  0
    8.7800    0.0238   -1.8496 H   0  0
   17.6223   -0.5191    0.2810 H   0  0
   16.8865   -0.3601   -1.3267 H   0  0
   19.5766    2.0062   -2.3613 H   0  0
   17.2987    2.5842   -2.6017 H   0  0
   17.9897    3.9104   -1.6646 H   0  0
   18.3905   -2.1429   -1.5611 H   0  0
   21.1893   -2.1726   -0.2575 H   0  0
   18.9134   -4.3007   -0.5007 H   0  0
   21.6879   -4.3353    0.8329 H   0  0
   20.3929   -6.1710    2.0280 H   0  0
   21.1180   -6.7883    0.5308 H   0  0
   19.3878   -6.4063    0.5869 H   0  0
   19.9810    1.0250    0.5240 H   0  0
    4.0811    2.1606   -3.1322 H   0  0
    5.8333    2.3954   -3.0164 H   0  0
    4.7471    3.2444   -1.8999 H   0  0
  1  2  2  0
  1  7  1  0
  2  3  1  0
  2  6  1  0
  3  4  1  0
  4  5  2  0
  4 14  1  0
  5  1  1  0
  6 35  1  0
  6 36  1  0
  6 37  1  0
  7  8  1  0
  7 38  1  0
  7 39  1  0
  8  9  1  0
  8 40  1  0
  8 41  1  0
  9 10  1  0
 10 11  2  0
 11 19  1  0
 11 42  1  0
 12 13  2  0
 12 43  1  0
 13 10  1  0
 13 44  1  0
 14 15  2  0
 14 17  1  0
 15 16  1  0
 15 45  1  0
 16 34  1  0
 16 46  1  0
 16 47  1  0
 17 48  1  0
 17 49  1  0
 17 50  1  0
 18 12  1  0
 18 19  2  0
 18 23  1  0
 19 20  1  0
 20 21  1  0
 20 51  1  0
 20 52  1  0
 21 22  1  0
 21 24  1  0
 22 23  1  0
 22 31  1  0
 22 53  1  0
 23 54  1  0
 23 55  1  0
 24 25  1  0
 24 26  2  0
 25 27  2  0
 25 56  1  0
 27 28  1  0
 27 57  1  0
 28 29  2  0
 28 58  1  0
 29 30  1  0
 29 59  1  0
 30 60  1  0
 30 61  1  0
 30 62  1  0
 31 32  1  0
 31 33  2  0
 32 63  1  0
 34 64  1  0
 34 65  1  0
 34 66  1  0
M  END
> <Name>
CHEMBL1935492

> <Clean Energy>
53.493301

> <chembl_id>
CHEMBL1935492

> <chembl_pref_name>
None

> <efficacy>
1.010526316

> <Forcefield>
MMFF

> <ForcefieldBase>
MMFF

> <ForcefieldFFML>
<?xml version="1.0" encoding="UTF-8"?>
<!DOCTYPE ffml SYSTEM "Ffml.dtd">
<ffml version="1.0">
<forcefield name="MMFF" derivedFrom="MMFF" base="MMFF">
<atomTypes>
<atomType
name="C100"
element="C"
mass="12.011"
annotation=""/>
<atomType
name="O101"
element="O"
mass="16"
annotation=""/>
<atomType
name="N102"
element="N"
mass="14.007"
annotation=""/>
<atomType
name="H103"
element="H"
mass="1.008"
annotation=""/>
</atomTypes>
<parameters>
</parameters>
</forcefield>
</ffml>

> <Initial Potential Energy>
113.53904

> <Initial RMS Gradient>
20.6559

> <Minimization Criteria>
CONJUG> Minimization exiting with gradient tolerance ( 0.0100000) satisfied.

> <CHARMm Energy>
19.90235

> <Potential Energy>
19.90235

> <RMS Gradient>
0.00867

> <Bond Energy>
6.39062

> <Angle Energy>
16.26134

> <STRBend>
-0.36961

> <Dihedral Energy>
-3.90815

> <OOPLane>
0.30482

> <Van der Waals Energy>
51.83594

> <Electrostatic Energy>
-50.61261

> <Hydrogen Bond Energy>
0

> <Solvation Free Energy>
0

> <HasGasteigerCharges>
true

> <REMARK99>
REMARK  99  MacroMolecule created from Mol2 file
REMARK  99  CHEMBL1935492
REMARK  99  PROTEIN
REMARK  99  GASTEIGER
REMARK  99
REMARK  99

$$$$
CHEMBL87928
  SciTegic05292516403D

 63 66  0  0  0  0            999 V2000
    3.5880   -1.2225   -0.2259 C   0  0
   -0.4532   -5.3471   -0.1953 C   0  0
   14.7011   -0.2665    0.2903 C   0  0
   -1.4401   -5.2484   -1.1379 O   0  0
    2.5570   -2.2874   -0.2331 C   0  0
    0.5702   -4.3055   -0.2142 C   0  0
   13.2671   -0.7879    0.1382 C   0  0  2  0  0  0
   -0.6837   -6.4635    0.5870 C   0  0
    4.8759   -1.6176   -0.2735 C   0  0
    3.2518    0.2123   -0.1428 C   0  0
   15.0137    0.9110    0.3832 O   0  0
   -2.2900   -6.2893   -0.9490 C   0  0
   12.4728   -0.4161    1.3957 C   0  0
   -1.8694   -7.0672    0.1017 C   0  0
    2.5552   -3.2837    0.7532 C   0  0
    1.5469   -2.2959   -1.1976 C   0  0
    0.5701   -3.2984   -1.1900 C   0  0
    1.5769   -4.2820    0.7594 C   0  0
   10.9845   -0.6431    1.2512 C   0  0
   15.6141   -1.2740    0.3132 O   0  0
    8.2271   -1.0971    0.9265 C   0  0
    6.1201   -0.7847   -0.1554 C   0  0
   13.3823   -2.2271    0.0056 O   0  0
   10.1914    0.2542    0.5210 C   0  0
   10.3779   -1.7639    1.8310 C   0  0
    8.8190    0.0298    0.3612 C   0  0
    9.0092   -1.9832    1.6703 C   0  0
    6.9083   -1.4355    0.8446 O   0  0
    3.1928    1.0005   -1.3006 C   0  0
    2.9558    0.7863    1.0992 C   0  0
   12.5092   -2.7447   -1.0044 C   0  0
   12.6146   -4.2564   -0.9880 C   0  0
    2.8315    2.3460   -1.2161 C   0  0
    2.6086    2.1346    1.1827 C   0  0
    2.5493    2.9120    0.0264 C   0  0
   12.8600   -0.3454   -0.7793 H   0  0
   -0.0737   -6.8070    1.4107 H   0  0
    5.1099   -2.6782   -0.3691 H   0  0
   -3.1296   -6.3373   -1.6283 H   0  0
   12.8437   -0.9932    2.2531 H   0  0
   12.6296    0.6395    1.6535 H   0  0
   -2.3557   -7.9574    0.4729 H   0  0
    3.3105   -3.2852    1.5357 H   0  0
    1.4961   -1.5265   -1.9644 H   0  0
   -0.1983   -3.2779   -1.9590 H   0  0
    1.6036   -5.0325    1.5455 H   0  0
   15.1072   -2.1182    0.2309 H   0  0
    6.6336   -0.7947   -1.1241 H   0  0
    5.9157    0.2443    0.1543 H   0  0
   10.6345    1.1424    0.0745 H   0  0
   10.9668   -2.4780    2.4039 H   0  0
    8.2374    0.7561   -0.1975 H   0  0
    8.5413   -2.8577    2.1185 H   0  0
    3.4049    0.5637   -2.2735 H   0  0
    2.9821    0.1818    2.0031 H   0  0
   11.4750   -2.4443   -0.8191 H   0  0
   12.8230   -2.3612   -1.9814 H   0  0
   11.9733   -4.7006   -1.7543 H   0  0
   12.3219   -4.6514   -0.0095 H   0  0
   13.6479   -4.5734   -1.1638 H   0  0
    2.7401    2.9513   -2.1163 H   0  0
    2.3599    2.5760    2.1454 H   0  0
    2.2526    3.9568    0.0909 H   0  0
  2  6  1  0
  3  7  1  0
  4  2  1  0
  5  1  1  0
  6 17  2  0
  7 13  1  0
  7 23  1  0
  7 36  1  0
  8  2  2  0
  8 37  1  0
  9  1  2  0
  9 38  1  0
 10  1  1  0
 11  3  2  0
 12  4  1  0
 12 14  2  0
 12 39  1  0
 13 19  1  0
 13 40  1  0
 13 41  1  0
 14  8  1  0
 14 42  1  0
 15  5  1  0
 15 43  1  0
 16  5  2  0
 16 44  1  0
 17 16  1  0
 17 45  1  0
 18  6  1  0
 18 15  2  0
 18 46  1  0
 19 25  2  0
 20  3  1  0
 20 47  1  0
 21 28  1  0
 22  9  1  0
 22 48  1  0
 22 49  1  0
 24 19  1  0
 24 26  2  0
 24 50  1  0
 25 27  1  0
 25 51  1  0
 26 21  1  0
 26 52  1  0
 27 21  2  0
 27 53  1  0
 28 22  1  0
 29 10  2  0
 29 54  1  0
 30 10  1  0
 30 55  1  0
 31 23  1  0
 31 56  1  0
 31 57  1  0
 32 31  1  0
 32 58  1  0
 32 59  1  0
 32 60  1  0
 33 29  1  0
 33 35  2  0
 33 61  1  0
 34 30  2  0
 34 62  1  0
 35 34  1  0
 35 63  1  0
M  END
> <Name>
CHEMBL87928

> <Clean Energy>
47.209599

> <chembl_id>
CHEMBL87928

> <chembl_pref_name>
None

> <efficacy>
1.12

> <Forcefield>
MMFF

> <ForcefieldBase>
MMFF

> <ForcefieldFFML>
<?xml version="1.0" encoding="UTF-8"?>
<!DOCTYPE ffml SYSTEM "Ffml.dtd">
<ffml version="1.0">
<forcefield name="MMFF" derivedFrom="MMFF" base="MMFF">
<atomTypes>
<atomType
name="C100"
element="C"
mass="12.011"
annotation=""/>
<atomType
name="O101"
element="O"
mass="16"
annotation=""/>
<atomType
name="H102"
element="H"
mass="1.008"
annotation=""/>
</atomTypes>
<parameters>
</parameters>
</forcefield>
</ffml>

> <Initial Potential Energy>
332.22436

> <Initial RMS Gradient>
68.70585

> <Minimization Criteria>
CONJUG> Minimization exiting with gradient tolerance ( 0.0100000) satisfied.

> <CHARMm Energy>
86.81888

> <Potential Energy>
86.81888

> <RMS Gradient>
0.00967

> <Bond Energy>
6.83933

> <Angle Energy>
12.23642

> <STRBend>
0.25466

> <Dihedral Energy>
12.0841

> <OOPLane>
0.03001

> <Van der Waals Energy>
66.19753

> <Electrostatic Energy>
-10.82318

> <Hydrogen Bond Energy>
0

> <Solvation Free Energy>
0

> <HasGasteigerCharges>
true

> <REMARK99>
REMARK  99  MacroMolecule created from Mol2 file
REMARK  99  CHEMBL87928
REMARK  99  PROTEIN
REMARK  99  GASTEIGER
REMARK  99
REMARK  99

$$$$
CHEMBL1935494
  SciTegic05292516403D

 69 71  0  0  0  0            999 V2000
   -0.3442   -1.4511    0.7224 C   0  0
   -0.4868   -0.9420   -0.5447 C   0  0
   -1.8156   -0.7704   -0.7784 O   0  0
   -2.4694   -1.1931    0.3754 C   0  0
   -1.5892   -1.6012    1.2873 N   0  0
    0.4439   -0.5764   -1.6258 C   0  0
    0.8896   -1.8216    1.4580 C   0  0
    1.4387   -0.6722    2.3010 C   0  0
    2.7158   -1.0496    2.8469 O   0  0
    3.7609   -0.4603    2.1926 C   0  0
    4.6511   -1.2902    1.5210 C   0  0
    5.0453    1.4680    1.5216 C   0  0
    3.9737    0.9141    2.2247 C   0  0
   -3.8822   -1.1750    0.5413 C   0  0
   -4.7082   -0.7312   -0.4213 C   0  0
   -6.2287   -0.6543   -0.3625 C   0  0
    5.9228    0.6444    0.8068 C   0  0
    5.7328   -0.7430    0.8150 C   0  0
    6.5977   -1.6466   -0.0080 C   0  0
    7.9038   -1.1125   -0.3954 N   0  0
    8.2459    0.3087   -0.1174 C   0  0  1  0  0  0
    7.0222    1.2285   -0.0389 C   0  0
    8.8452   -1.8711   -1.0821 C   0  0
    8.4636   -3.2632   -1.4060 C   0  0
    9.9703   -1.4587   -1.3464 O   0  0
    9.3117   -4.2600   -1.1179 C   0  0
    8.9401   -5.6426   -1.3017 C   0  0
    9.7416   -6.6577   -0.9572 C   0  0
    9.3770   -8.0985   -1.1139 C   0  0
    9.1427    0.5055    1.1213 C   0  0
    9.4948   -0.6388    1.7586 O   0  0
    9.5668    1.5939    1.4940 O   0  0
   -6.6442    0.8149   -0.5574 C   0  0
   -6.8383   -1.1632    0.9571 C   0  0
   -6.7982   -1.4959   -1.5186 C   0  0
   -0.0521    0.0299   -2.3903 H   0  0
    0.8394   -1.4760   -2.1069 H   0  0
    1.2857    0.0009   -1.2308 H   0  0
    0.6950   -2.6862    2.1047 H   0  0
    1.6543   -2.1584    0.7468 H   0  0
    1.4829    0.2551    1.7145 H   0  0
    0.7689   -0.4775    3.1470 H   0  0
    4.4825   -2.3646    1.5301 H   0  0
    5.1836    2.5472    1.5305 H   0  0
    3.3093    1.5599    2.7905 H   0  0
   -4.2592   -1.5366    1.4915 H   0  0
   -4.2802   -0.3778   -1.3608 H   0  0
    6.7745   -2.5803    0.5396 H   0  0
    6.0560   -1.8898   -0.9302 H   0  0
    8.8702    0.6561   -0.9523 H   0  0
    6.6143    1.3717   -1.0480 H   0  0
    7.3060    2.2183    0.3378 H   0  0
    7.4878   -3.4420   -1.8347 H   0  0
   10.2928   -4.0449   -0.6944 H   0  0
    7.9509   -5.8502   -1.7098 H   0  0
   10.7334   -6.4697   -0.5470 H   0  0
    9.4023   -8.5970   -0.1401 H   0  0
   10.0954   -8.5947   -1.7735 H   0  0
    8.3767   -8.2295   -1.5385 H   0  0
    9.0245   -1.3898    1.3448 H   0  0
   -7.7353    0.9207   -0.5608 H   0  0
   -6.2724    1.2161   -1.5078 H   0  0
   -6.2513    1.4487    0.2465 H   0  0
   -7.9318   -1.0863    0.9404 H   0  0
   -6.4848   -0.5800    1.8152 H   0  0
   -6.5894   -2.2157    1.1355 H   0  0
   -7.8928   -1.4436   -1.5447 H   0  0
   -6.5182   -2.5512   -1.4168 H   0  0
   -6.4295   -1.1471   -2.4906 H   0  0
  1  2  2  0
  1  7  1  0
  2  3  1  0
  2  6  1  0
  3  4  1  0
  4  5  2  0
  4 14  1  0
  5  1  1  0
  6 36  1  0
  6 37  1  0
  6 38  1  0
  7  8  1  0
  7 39  1  0
  7 40  1  0
  8  9  1  0
  8 41  1  0
  8 42  1  0
  9 10  1  0
 10 11  2  0
 11 18  1  0
 11 43  1  0
 12 13  2  0
 12 44  1  0
 13 10  1  0
 13 45  1  0
 14 15  2  0
 14 46  1  0
 15 16  1  0
 15 47  1  0
 16 33  1  0
 16 34  1  0
 16 35  1  0
 17 12  1  0
 17 18  2  0
 17 22  1  0
 18 19  1  0
 19 20  1  0
 19 48  1  0
 19 49  1  0
 20 21  1  0
 20 23  1  0
 21 22  1  0
 21 30  1  0
 21 50  1  0
 22 51  1  0
 22 52  1  0
 23 24  1  0
 23 25  2  0
 24 26  2  0
 24 53  1  0
 26 27  1  0
 26 54  1  0
 27 28  2  0
 27 55  1  0
 28 29  1  0
 28 56  1  0
 29 57  1  0
 29 58  1  0
 29 59  1  0
 30 31  1  0
 30 32  2  0
 31 60  1  0
 33 61  1  0
 33 62  1  0
 33 63  1  0
 34 64  1  0
 34 65  1  0
 34 66  1  0
 35 67  1  0
 35 68  1  0
 35 69  1  0
M  END
> <Name>
CHEMBL1935494

> <Clean Energy>
60.848202

> <chembl_id>
CHEMBL1935494

> <chembl_pref_name>
None

> <efficacy>
1.021052632

> <Forcefield>
MMFF

> <ForcefieldBase>
MMFF

> <ForcefieldFFML>
<?xml version="1.0" encoding="UTF-8"?>
<!DOCTYPE ffml SYSTEM "Ffml.dtd">
<ffml version="1.0">
<forcefield name="MMFF" derivedFrom="MMFF" base="MMFF">
<atomTypes>
<atomType
name="C100"
element="C"
mass="12.011"
annotation=""/>
<atomType
name="O101"
element="O"
mass="16"
annotation=""/>
<atomType
name="N102"
element="N"
mass="14.007"
annotation=""/>
<atomType
name="H103"
element="H"
mass="1.008"
annotation=""/>
</atomTypes>
<parameters>
</parameters>
</forcefield>
</ffml>

> <Initial Potential Energy>
122.55574

> <Initial RMS Gradient>
20.58493

> <Minimization Criteria>
STEEPD> Minimization exiting with gradient tolerance ( 3.0000000) satisfied.

> <CHARMm Energy>
22.32384

> <Potential Energy>
22.32384

> <RMS Gradient>
0.02971

> <Bond Energy>
6.60461

> <Angle Energy>
15.38649

> <STRBend>
0.25128

> <Dihedral Energy>
1.28266

> <OOPLane>
0.27523

> <Van der Waals Energy>
55.41122

> <Electrostatic Energy>
-56.88766

> <Hydrogen Bond Energy>
0

> <Solvation Free Energy>
0

> <HasGasteigerCharges>
true

> <REMARK99>
REMARK  99  MacroMolecule created from Mol2 file
REMARK  99  CHEMBL1935494
REMARK  99  PROTEIN
REMARK  99  GASTEIGER
REMARK  99
REMARK  99

$$$$
CHEMBL1935609
  SciTegic05292516403D

 75 77  0  0  0  0            999 V2000
   24.6612    2.6735    0.2351 N   0  0
   25.3037    1.8086   -0.6246 C   0  0
   25.6460    0.4441   -0.1312 C   0  0
   25.1068   -0.5717   -0.8285 C   0  0
   25.3903   -1.9775   -0.6442 C   0  0
   24.7345   -2.9353   -1.3159 C   0  0
   25.0553   -4.3912   -1.1983 C   0  0
   20.1081    4.4096    1.5327 C   0  0
   20.0625    3.0143    1.5774 C   0  0
   21.2495    2.2727    1.5402 C   0  0
   21.3204    5.0624    1.3386 C   0  0
   22.4899    4.3155    1.2114 C   0  0
   22.4752    2.9204    1.3562 C   0  0
   23.8032    2.1930    1.3282 C   0  0
   24.5968    4.1239   -0.1071 C   0  0  1  0  0  0
   23.8102    4.9604    0.9286 C   0  0
   25.9596    4.8247   -0.2418 C   0  0
   26.7656    4.3526   -1.2147 O   0  0
   26.2932    5.8006    0.4189 O   0  0
   18.9016    2.2898    1.6563 O   0  0
   17.7501    2.9444    1.1018 C   0  0
   16.7847    1.8874    0.5836 C   0  0
   15.6424    2.4749   -0.1652 C   0  0
   15.6297    3.1539   -1.3617 C   0  0
   14.3368    3.4782   -1.6432 O   0  0
   13.5798    2.9622   -0.6007 C   0  0
   14.3541    2.3745    0.3064 N   0  0
   16.6577    3.5791   -2.3292 C   0  0
   12.1619    3.0807   -0.5851 C   0  0
   11.4146    2.5189    0.3789 C   0  0
    9.9158    2.5915    0.4289 C   0  0
    9.2948    1.2082    0.2103 C   0  0
    7.7628    1.1872    0.3696 C   0  0
    7.2545   -0.2545    0.2832 C   0  0
    7.0522    2.0453   -0.6778 C   0  0
   25.7545    2.1686   -1.7155 O   0  0
   26.6638    0.3875    0.9651 C   0  0
   24.4006   -0.3358   -1.6277 H   0  0
   26.1891   -2.2633    0.0367 H   0  0
   23.9243   -2.6737   -1.9965 H   0  0
   24.1772   -4.9387   -0.8432 H   0  0
   25.8801   -4.5802   -0.5039 H   0  0
   25.3370   -4.7893   -2.1781 H   0  0
   19.2106    5.0138    1.6345 H   0  0
   21.2054    1.1902    1.6289 H   0  0
   21.3400    6.1482    1.2718 H   0  0
   24.3324    2.3768    2.2708 H   0  0
   23.6293    1.1167    1.2413 H   0  0
   24.0949    4.2009   -1.0819 H   0  0
   23.6666    5.9807    0.5500 H   0  0
   24.3587    5.0383    1.8771 H   0  0
   26.4108    3.5554   -1.6811 H   0  0
   17.2741    3.5529    1.8798 H   0  0
   18.0331    3.5943    0.2641 H   0  0
   17.3205    1.1839   -0.0657 H   0  0
   16.4181    1.2882    1.4261 H   0  0
   16.2453    3.6362   -3.3415 H   0  0
   17.4948    2.8744   -2.3460 H   0  0
   17.0449    4.5668   -2.0612 H   0  0
   11.7070    3.6284   -1.4019 H   0  0
   11.9016    1.9691    1.1848 H   0  0
    9.6191    2.9845    1.4086 H   0  0
    9.5476    3.2971   -0.3240 H   0  0
    9.5657    0.8387   -0.7875 H   0  0
    9.7324    0.5037    0.9308 H   0  0
    7.5067    1.5749    1.3639 H   0  0
    6.1699   -0.2957    0.4316 H   0  0
    7.7190   -0.8789    1.0544 H   0  0
    7.4802   -0.6974   -0.6928 H   0  0
    5.9644    1.9560   -0.5795 H   0  0
    7.3247    1.7393   -1.6936 H   0  0
    7.2999    3.1049   -0.5621 H   0  0
   26.1938    0.5773    1.9349 H   0  0
   27.4401    1.1447    0.8085 H   0  0
   27.1730   -0.5775    1.0219 H   0  0
  1  2  1  0
  1 15  1  0
  2  3  1  0
  2 36  2  0
  3  4  2  0
  3 37  1  0
  4  5  1  0
  4 38  1  0
  5  6  2  0
  5 39  1  0
  6  7  1  0
  6 40  1  0
  7 41  1  0
  7 42  1  0
  7 43  1  0
  8  9  2  0
  8 44  1  0
  9 10  1  0
  9 20  1  0
 10 13  2  0
 10 45  1  0
 11  8  1  0
 11 46  1  0
 12 11  2  0
 12 13  1  0
 12 16  1  0
 13 14  1  0
 14  1  1  0
 14 47  1  0
 14 48  1  0
 15 16  1  0
 15 17  1  0
 15 49  1  0
 16 50  1  0
 16 51  1  0
 17 18  1  0
 17 19  2  0
 18 52  1  0
 20 21  1  0
 21 22  1  0
 21 53  1  0
 21 54  1  0
 22 23  1  0
 22 55  1  0
 22 56  1  0
 23 24  2  0
 24 25  1  0
 24 28  1  0
 25 26  1  0
 26 27  2  0
 26 29  1  0
 27 23  1  0
 28 57  1  0
 28 58  1  0
 28 59  1  0
 29 30  2  0
 29 60  1  0
 30 31  1  0
 30 61  1  0
 31 32  1  0
 31 62  1  0
 31 63  1  0
 32 33  1  0
 32 64  1  0
 32 65  1  0
 33 34  1  0
 33 35  1  0
 33 66  1  0
 34 67  1  0
 34 68  1  0
 34 69  1  0
 35 70  1  0
 35 71  1  0
 35 72  1  0
 37 73  1  0
 37 74  1  0
 37 75  1  0
M  END
> <Name>
CHEMBL1935609

> <Clean Energy>
66.517097

> <chembl_id>
CHEMBL1935609

> <chembl_pref_name>
None

> <efficacy>
1.031578947

> <Forcefield>
MMFF

> <ForcefieldBase>
MMFF

> <ForcefieldFFML>
<?xml version="1.0" encoding="UTF-8"?>
<!DOCTYPE ffml SYSTEM "Ffml.dtd">
<ffml version="1.0">
<forcefield name="MMFF" derivedFrom="MMFF" base="MMFF">
<atomTypes>
<atomType
name="N100"
element="N"
mass="14.007"
annotation=""/>
<atomType
name="C101"
element="C"
mass="12.011"
annotation=""/>
<atomType
name="O102"
element="O"
mass="16"
annotation=""/>
<atomType
name="H103"
element="H"
mass="1.008"
annotation=""/>
</atomTypes>
<parameters>
</parameters>
</forcefield>
</ffml>

> <Initial Potential Energy>
149.20978

> <Initial RMS Gradient>
21.01697

> <Minimization Criteria>
STEEPD> Minimization exiting with gradient tolerance ( 3.0000000) satisfied.

> <CHARMm Energy>
37.36519

> <Potential Energy>
37.36519

> <RMS Gradient>
0.17925

> <Bond Energy>
6.74999

> <Angle Energy>
17.07253

> <STRBend>
0.20561

> <Dihedral Energy>
2.60311

> <OOPLane>
0.82399

> <Van der Waals Energy>
64.1263

> <Electrostatic Energy>
-54.21634

> <Hydrogen Bond Energy>
0

> <Solvation Free Energy>
0

> <HasGasteigerCharges>
true

> <REMARK99>
REMARK  99  MacroMolecule created from Mol2 file
REMARK  99  CHEMBL1935609
REMARK  99  PROTEIN
REMARK  99  GASTEIGER
REMARK  99
REMARK  99

$$$$
CHEMBL1089120
  SciTegic05292516403D

 62 67  0  0  0  0            999 V2000
   14.1240   -5.6883   -0.8875 C   0  0
   13.0618   -4.7872   -0.8084 C   0  0
   11.6039   -6.6506   -0.3137 C   0  0
   11.7950   -5.2726   -0.5548 C   0  0
   10.2759   -6.9187   -0.0210 O   0  0
    9.6079   -5.6953   -0.0116 C   0  0
   10.4450   -4.6126   -0.6340 C   0  0  1  0  0  0
   10.2329   -3.3137    0.1424 C   0  0
    8.8308   -3.0073    0.6021 C   0  0
    8.0200   -4.0713    0.8089 C   0  0
    8.4733   -5.4433    0.6554 C   0  0
    6.7144   -3.9890    1.2479 O   0  0
    8.3047   -1.6188    0.8094 C   0  0
    9.2080   -0.4418    0.5536 C   0  0
    7.1365   -1.4464    1.1741 O   0  0
   11.1582   -2.5168    0.3073 O   0  0
   10.0649   -4.3772   -2.1043 C   0  0
   13.3243   -3.4688   -1.0176 O   0  0
   13.9178   -7.0678   -0.6938 C   0  0
   12.6506   -7.5672   -0.3990 C   0  0
   12.4747   -9.0346   -0.3237 C   0  0
   13.6163   -9.7935   -0.5457 N   0  0
   14.8989   -9.1868   -0.3221 C   0  0  1  0  0  0
   15.0121   -7.8683   -0.8686 O   0  0
   11.3745   -9.5003   -0.0493 O   0  0
   13.5045  -11.1338   -0.8687 C   0  0
   14.5125  -11.9317   -0.3906 N   0  0
   12.6166  -11.5564   -1.6049 O   0  0
   14.6942  -13.3000   -0.8123 C   0  0
   15.1589   -9.2169    1.0835 O   0  0
   16.5478   -9.1067    1.3664 C   0  0
   16.0759  -13.7153   -0.4707 C   0  0
   16.6157  -14.9159   -0.0523 C   0  0
   17.0589  -12.7659   -0.5735 O   0  0
   18.2320  -13.3759   -0.2385 C   0  0
   18.0104  -14.7059    0.0986 C   0  0
   19.1108  -15.4974    0.4783 C   0  0
   20.3895  -14.9184    0.4974 C   0  0
   20.5697  -13.5775    0.1497 C   0  0
   19.4893  -12.7747   -0.2303 C   0  0
   15.1217   -5.3222   -1.1179 H   0  0
    7.9312   -6.2413    1.1547 H   0  0
    6.4583   -3.0419    1.3568 H   0  0
    8.6190    0.4792    0.6061 H   0  0
    9.6407   -0.5017   -0.4484 H   0  0
    9.9890   -0.3935    1.3165 H   0  0
    9.0432   -3.9934   -2.2057 H   0  0
   10.1310   -5.2953   -2.7002 H   0  0
   10.7303   -3.6378   -2.5665 H   0  0
   12.6577   -2.9158   -0.5528 H   0  0
   15.6598   -9.7836   -0.8399 H   0  0
   14.9636  -11.6305    0.4633 H   0  0
   13.9527  -13.9165   -0.2930 H   0  0
   14.5190  -13.3766   -1.8901 H   0  0
   16.6777   -9.1094    2.4521 H   0  0
   16.9506   -8.1696    0.9706 H   0  0
   17.0940   -9.9590    0.9513 H   0  0
   16.0671  -15.8317    0.1167 H   0  0
   18.9758  -16.5407    0.7479 H   0  0
   21.2488  -15.5223    0.7852 H   0  0
   21.5657  -13.1425    0.1727 H   0  0
   19.6191  -11.7370   -0.5088 H   0  0
  1  2  2  0
  1 41  1  0
  2  4  1  0
  2 18  1  0
  3  4  2  0
  3 20  1  0
  4  7  1  0
  5  3  1  0
  6  5  1  0
  6  7  1  0
  7  8  1  0
  7 17  1  0
  8  9  1  0
  8 16  2  0
  9 10  2  0
  9 13  1  0
 10 11  1  0
 10 12  1  0
 11  6  2  0
 11 42  1  0
 12 43  1  0
 13 14  1  0
 13 15  2  0
 14 44  1  0
 14 45  1  0
 14 46  1  0
 17 47  1  0
 17 48  1  0
 17 49  1  0
 18 50  1  0
 19  1  1  0
 19 20  2  0
 19 24  1  0
 20 21  1  0
 21 22  1  0
 21 25  2  0
 22 23  1  0
 22 26  1  0
 23 24  1  0
 23 30  1  0
 23 51  1  0
 26 27  1  0
 26 28  2  0
 27 29  1  0
 27 52  1  0
 29 32  1  0
 29 53  1  0
 29 54  1  0
 30 31  1  0
 31 55  1  0
 31 56  1  0
 31 57  1  0
 32 33  2  0
 33 36  1  0
 33 58  1  0
 34 32  1  0
 35 34  1  0
 35 36  2  0
 36 37  1  0
 37 38  2  0
 37 59  1  0
 38 39  1  0
 38 60  1  0
 39 40  2  0
 39 61  1  0
 40 35  1  0
 40 62  1  0
M  END
> <Name>
CHEMBL1089120

> <Clean Energy>
89.983101

> <chembl_id>
CHEMBL1089120

> <chembl_pref_name>
None

> <efficacy>
0.978947368

> <Forcefield>
MMFF

> <ForcefieldBase>
MMFF

> <ForcefieldFFML>
<?xml version="1.0" encoding="UTF-8"?>
<!DOCTYPE ffml SYSTEM "Ffml.dtd">
<ffml version="1.0">
<forcefield name="MMFF" derivedFrom="MMFF" base="MMFF">
<atomTypes>
<atomType
name="C100"
element="C"
mass="12.011"
annotation=""/>
<atomType
name="O101"
element="O"
mass="16"
annotation=""/>
<atomType
name="N102"
element="N"
mass="14.007"
annotation=""/>
<atomType
name="H103"
element="H"
mass="1.008"
annotation=""/>
</atomTypes>
<parameters>
</parameters>
</forcefield>
</ffml>

> <Initial Potential Energy>
54.35889

> <Initial RMS Gradient>
28.10544

> <Minimization Criteria>
STEEPD> Minimization exiting with gradient tolerance ( 3.0000000) satisfied.

> <CHARMm Energy>
-56.41366

> <Potential Energy>
-56.41366

> <RMS Gradient>
0.27968

> <Bond Energy>
6.58848

> <Angle Energy>
29.65428

> <STRBend>
-0.5148

> <Dihedral Energy>
18.60051

> <OOPLane>
0.8591

> <Van der Waals Energy>
68.43563

> <Electrostatic Energy>
-180.03685

> <Hydrogen Bond Energy>
0

> <Solvation Free Energy>
0

> <HasGasteigerCharges>
true

> <REMARK99>
REMARK  99  MacroMolecule created from Mol2 file
REMARK  99  CHEMBL1089120
REMARK  99  PROTEIN
REMARK  99  GASTEIGER
REMARK  99
REMARK  99

$$$$
CHEMBL3764424
  SciTegic05292516403D

 50 51  0  0  0  0            999 V2000
   -2.3837   -2.9048   -1.1033 F   0  0
   -1.0850   -2.7142   -0.7391 C   0  0
   -0.3432   -3.3097   -1.7138 F   0  0
    0.3087   -0.6799   -1.2557 C   0  0
    0.6538    0.6611   -1.0896 C   0  0
   -0.0556    1.4570   -0.1982 C   0  0
   -1.1130    0.9112    0.5266 C   0  0
   -1.4714   -0.4432    0.3807 C   0  0
   -0.7557   -1.2511   -0.5317 C   0  0
   -2.6400   -0.9586    1.1892 C   0  0
   -3.8904   -0.5642    0.6021 N   0  0
   -0.8940   -3.4579    0.3836 F   0  0
   -5.0613   -0.7434    1.2986 C   0  0
   -6.2894   -0.2430    0.6437 C   0  0
   -5.1243   -1.2769    2.3994 O   0  0
   -7.5035   -0.8745    0.9312 C   0  0
   -8.6900   -0.3693    0.4057 C   0  0
   -8.6673    0.7785   -0.3950 C   0  0
   -7.4442    1.3904   -0.7026 C   0  0
   -6.2574    0.8860   -0.1815 C   0  0
   -9.9507    1.4314   -0.8374 C   0  0
  -10.3549    2.5471    0.1412 C   0  0  1  0  0  0
  -11.2425    3.5376   -0.5666 C   0  0
  -11.1716    4.7537    0.0483 O   0  0
  -11.9548    3.2857   -1.5286 O   0  0
  -12.0069    5.7573   -0.5364 C   0  0
  -11.8125    7.0446    0.2408 C   0  0
  -11.0884    2.0173    1.3719 C   0  0
    0.8886   -1.2849   -1.9539 H   0  0
    1.4841    1.0821   -1.6520 H   0  0
    0.2257    2.4991   -0.0625 H   0  0
   -1.6719    1.5484    1.2121 H   0  0
   -2.6330   -2.0484    1.2839 H   0  0
   -2.5831   -0.5655    2.2125 H   0  0
   -3.9046   -0.2612   -0.3619 H   0  0
   -7.5270   -1.7436    1.5856 H   0  0
   -9.6332   -0.8501    0.6589 H   0  0
   -7.4173    2.2901   -1.3143 H   0  0
   -5.3305    1.4147   -0.3824 H   0  0
   -9.7992    1.8310   -1.8493 H   0  0
  -10.7471    0.6820   -0.9333 H   0  0
   -9.4585    3.0948    0.4623 H   0  0
  -11.7232    5.9114   -1.5836 H   0  0
  -13.0558    5.4453   -0.4788 H   0  0
  -12.4290    7.8478   -0.1721 H   0  0
  -10.7627    7.3552    0.2146 H   0  0
  -12.0764    6.9020    1.2941 H   0  0
  -11.4168    2.8398    2.0171 H   0  0
  -10.4451    1.3667    1.9711 H   0  0
  -11.9821    1.4508    1.0878 H   0  0
  2  1  1  0
  2 12  1  0
  3  2  1  0
  4  5  2  0
  4 29  1  0
  5  6  1  0
  5 30  1  0
  6  7  2  0
  6 31  1  0
  7  8  1  0
  7 32  1  0
  8  9  2  0
  8 10  1  0
  9  2  1  0
  9  4  1  0
 10 11  1  0
 10 33  1  0
 10 34  1  0
 11 13  1  0
 11 35  1  0
 13 14  1  0
 13 15  2  0
 14 16  2  0
 16 17  1  0
 16 36  1  0
 17 18  2  0
 17 37  1  0
 18 19  1  0
 18 21  1  0
 19 20  2  0
 19 38  1  0
 20 14  1  0
 20 39  1  0
 21 22  1  0
 21 40  1  0
 21 41  1  0
 22 23  1  0
 22 28  1  0
 22 42  1  0
 23 24  1  0
 23 25  2  0
 24 26  1  0
 26 27  1  0
 26 43  1  0
 26 44  1  0
 27 45  1  0
 27 46  1  0
 27 47  1  0
 28 48  1  0
 28 49  1  0
 28 50  1  0
M  END
> <Name>
CHEMBL3764424

> <Clean Energy>
21.1381

> <chembl_id>
CHEMBL3764424

> <chembl_pref_name>
None

> <efficacy>
1.044634378

> <Forcefield>
MMFF

> <ForcefieldBase>
MMFF

> <ForcefieldFFML>
<?xml version="1.0" encoding="UTF-8"?>
<!DOCTYPE ffml SYSTEM "Ffml.dtd">
<ffml version="1.0">
<forcefield name="MMFF" derivedFrom="MMFF" base="MMFF">
<atomTypes>
<atomType
name="F100"
element="F"
mass="18.998"
annotation=""/>
<atomType
name="C101"
element="C"
mass="12.011"
annotation=""/>
<atomType
name="N102"
element="N"
mass="14.007"
annotation=""/>
<atomType
name="O103"
element="O"
mass="16"
annotation=""/>
<atomType
name="H104"
element="H"
mass="1.008"
annotation=""/>
</atomTypes>
<parameters>
</parameters>
</forcefield>
</ffml>

> <Initial Potential Energy>
90.06346

> <Initial RMS Gradient>
25.19349

> <Minimization Criteria>
STEEPD> Minimization exiting with gradient tolerance ( 3.0000000) satisfied.

> <CHARMm Energy>
29.43024

> <Potential Energy>
29.43024

> <RMS Gradient>
0.04617

> <Bond Energy>
4.59285

> <Angle Energy>
3.97015

> <STRBend>
0.44027

> <Dihedral Energy>
-0.39443

> <OOPLane>
0.16867

> <Van der Waals Energy>
48.9813

> <Electrostatic Energy>
-28.32857

> <Hydrogen Bond Energy>
0

> <Solvation Free Energy>
0

> <HasGasteigerCharges>
true

> <REMARK99>
REMARK  99  MacroMolecule created from Mol2 file
REMARK  99  CHEMBL3764424
REMARK  99  PROTEIN
REMARK  99  GASTEIGER
REMARK  99
REMARK  99

$$$$
CHEMBL484263
  SciTegic05292516403D

 52 54  0  0  0  0            999 V2000
    7.6530  -12.2554   -0.6148 C   0  0
    7.9024  -13.5927   -0.9223 C   0  0
    9.2069  -14.0979   -0.8760 C   0  0
   10.2626  -13.2377   -0.5325 C   0  0
   10.0145  -11.8942   -0.2252 C   0  0
    8.7045  -11.4081   -0.2648 C   0  0
   11.1180  -10.9696    0.1193 C   0  0
   12.5247  -11.4389    0.2339 C   0  0
   10.9553   -9.6995    0.3108 N   0  0
   12.2335   -9.1474    0.5657 O   0  0
   13.1187  -10.2226    0.9089 C   0  0  2  0  0  0
    9.4864  -15.5509   -1.1858 C   0  0
    9.7925  -16.3866    0.0691 C   0  0  1  0  0  0
    8.4769  -16.9244    0.6608 C   0  0
   10.6816  -17.4294   -0.3481 O   0  0
   11.3424  -18.0724    0.7404 C   0  0
   12.2234  -19.1712    0.1797 C   0  0
    7.7310  -15.9955    1.3094 O   0  0
    8.1062  -18.0888    0.5943 O   0  0
   14.5273   -9.8953    0.4231 C   0  0
   15.5328  -10.9837    0.7996 C   0  0
   16.8554  -10.7806    0.1063 C   0  0
   17.0744  -11.3388   -1.1624 C   0  0
   18.2883  -11.1457   -1.8179 C   0  0
   19.2928  -10.3921   -1.2127 C   0  0
   19.0821   -9.8286    0.0441 C   0  0
   17.8658  -10.0179    0.7015 C   0  0
    6.6397  -11.8643   -0.6600 H   0  0
    7.0696  -14.2341   -1.2059 H   0  0
   11.2763  -13.6310   -0.5304 H   0  0
    8.4966  -10.3634   -0.0385 H   0  0
   12.6335  -12.3377    0.8447 H   0  0
   12.9241  -11.6085   -0.7712 H   0  0
   13.1020  -10.3300    2.0005 H   0  0
    8.6441  -15.9853   -1.7404 H   0  0
   10.3344  -15.5876   -1.8835 H   0  0
   10.3003  -15.7897    0.8368 H   0  0
   11.9580  -17.3431    1.2780 H   0  0
   10.6119  -18.5026    1.4328 H   0  0
   12.7572  -19.6903    0.9807 H   0  0
   12.9547  -18.7586   -0.5231 H   0  0
   11.6237  -19.9000   -0.3756 H   0  0
    8.1152  -15.0965    1.3173 H   0  0
   14.5083   -9.7393   -0.6642 H   0  0
   14.8428   -8.9309    0.8425 H   0  0
   15.6808  -10.9972    1.8868 H   0  0
   15.1541  -11.9794    0.5386 H   0  0
   16.2958  -11.9283   -1.6436 H   0  0
   18.4606  -11.5696   -2.8043 H   0  0
   20.2383  -10.2395   -1.7253 H   0  0
   19.8635   -9.2359    0.5114 H   0  0
   17.7217   -9.5581    1.6766 H   0  0
  1  2  2  0
  1 28  1  0
  2  3  1  0
  2 29  1  0
  3  4  2  0
  3 12  1  0
  4  5  1  0
  4 30  1  0
  5  6  2  0
  5  7  1  0
  6  1  1  0
  6 31  1  0
  7  8  1  0
  7  9  2  0
  8 11  1  0
  8 32  1  0
  8 33  1  0
  9 10  1  0
 10 11  1  0
 11 20  1  0
 11 34  1  0
 12 13  1  0
 12 35  1  0
 12 36  1  0
 13 14  1  0
 13 15  1  0
 13 37  1  0
 14 18  1  0
 14 19  2  0
 15 16  1  0
 16 17  1  0
 16 38  1  0
 16 39  1  0
 17 40  1  0
 17 41  1  0
 17 42  1  0
 18 43  1  0
 20 21  1  0
 20 44  1  0
 20 45  1  0
 21 22  1  0
 21 46  1  0
 21 47  1  0
 22 23  2  0
 23 24  1  0
 23 48  1  0
 24 25  2  0
 24 49  1  0
 25 26  1  0
 25 50  1  0
 26 27  2  0
 26 51  1  0
 27 22  1  0
 27 52  1  0
M  END
> <Name>
CHEMBL484263

> <Clean Energy>
44.377102

> <chembl_id>
CHEMBL484263

> <chembl_pref_name>
None

> <efficacy>
1.14

> <Forcefield>
MMFF

> <ForcefieldBase>
MMFF

> <ForcefieldFFML>
<?xml version="1.0" encoding="UTF-8"?>
<!DOCTYPE ffml SYSTEM "Ffml.dtd">
<ffml version="1.0">
<forcefield name="MMFF" derivedFrom="MMFF" base="MMFF">
<atomTypes>
<atomType
name="C100"
element="C"
mass="12.011"
annotation=""/>
<atomType
name="N101"
element="N"
mass="14.007"
annotation=""/>
<atomType
name="O102"
element="O"
mass="16"
annotation=""/>
<atomType
name="H103"
element="H"
mass="1.008"
annotation=""/>
</atomTypes>
<parameters>
</parameters>
</forcefield>
</ffml>

> <Initial Potential Energy>
285.47603

> <Initial RMS Gradient>
81.77227

> <Minimization Criteria>
CONJUG> Minimization exiting with gradient tolerance ( 0.0100000) satisfied.

> <CHARMm Energy>
87.66991

> <Potential Energy>
87.66991

> <RMS Gradient>
0.00861

> <Bond Energy>
4.74308

> <Angle Energy>
9.97227

> <STRBend>
0.82905

> <Dihedral Energy>
2.69739

> <OOPLane>
0.03553

> <Van der Waals Energy>
45.53485

> <Electrostatic Energy>
23.85773

> <Hydrogen Bond Energy>
0

> <Solvation Free Energy>
0

> <HasGasteigerCharges>
true

> <REMARK99>
REMARK  99  MacroMolecule created from Mol2 file
REMARK  99  CHEMBL484263
REMARK  99  PROTEIN
REMARK  99  GASTEIGER
REMARK  99
REMARK  99

$$$$
CHEMBL220622
  SciTegic05292516403D

 74 77  0  0  0  0            999 V2000
   -7.9405  -21.1539    0.2176 C   0  0
   -7.1071  -22.1277   -0.3490 C   0  0
   -5.7174  -22.0211   -0.2574 C   0  0
   -5.1244  -20.9392    0.4056 C   0  0
   -5.9541  -19.9731    0.9883 C   0  0
   -7.3451  -20.0803    0.8950 C   0  0
   -3.6729  -20.8449    0.4565 C   0  0
   -2.7623  -21.6216   -0.1044 N   0  0
   -1.5578  -21.0784    0.2738 C   0  0
   -1.7840  -19.9623    1.0479 C   0  0
   -3.1331  -19.8059    1.1737 O   0  0
   -0.9264  -18.9807    1.7306 C   0  0
   -0.2841  -21.7078   -0.1404 C   0  0
    0.1758  -21.2566   -1.5243 C   0  0
    1.3582  -21.9870   -1.8958 O   0  0
    2.5085  -21.2880   -1.6555 C   0  0
    3.3366  -21.7103   -0.6178 C   0  0
    4.5532  -21.0528   -0.3427 C   0  0
    4.9448  -19.9734   -1.1708 C   0  0
    4.1026  -19.5834   -2.2314 C   0  0
    2.8955  -20.2391   -2.4771 C   0  0
    5.3590  -21.5366    0.8408 C   0  0
    6.5670  -22.2102    0.4529 N   0  0
    6.2373  -19.2061   -0.9868 C   0  0
    6.1633  -18.1752    0.1300 C   0  0
    7.5131  -17.5516    0.3383 C   0  0
    8.3541  -18.2939    1.0932 O   0  0
    7.8598  -16.4824   -0.1450 O   0  0
    7.8026  -21.8231    0.8664 C   0  0
    8.7337  -22.6862    0.3884 O   0  0
    8.0484  -20.8281    1.5379 O   0  0
   10.1134  -22.3919    0.6993 C   0  0
   10.8829  -23.7041    0.6155 C   0  0
   10.6563  -21.3819   -0.3053 C   0  0
   -9.3971  -21.2477    0.0832 C   0  0
  -10.2319  -21.2323    1.2108 C   0  0
  -11.6168  -21.3226    1.0720 C   0  0
  -12.1832  -21.4273   -0.1958 C   0  0
  -11.3713  -21.4424   -1.3265 C   0  0
   -9.9882  -21.3535   -1.1870 C   0  0
   -7.5352  -22.9819   -0.8699 H   0  0
   -5.0995  -22.7913   -0.7152 H   0  0
   -5.5321  -19.1171    1.5098 H   0  0
   -7.9642  -19.3026    1.3382 H   0  0
   -1.4873  -18.0789    1.9953 H   0  0
   -0.0931  -18.6825    1.0869 H   0  0
   -0.5146  -19.4092    2.6492 H   0  0
    0.4967  -21.4911    0.5989 H   0  0
   -0.3938  -22.7996   -0.1321 H   0  0
   -0.5909  -21.4958   -2.2708 H   0  0
    0.3229  -20.1688   -1.5600 H   0  0
    3.0207  -22.5592   -0.0148 H   0  0
    4.3898  -18.7628   -2.8878 H   0  0
    2.2775  -19.9382   -3.3179 H   0  0
    5.5697  -20.7080    1.5221 H   0  0
    4.7812  -22.2629    1.4244 H   0  0
    6.5344  -23.0321   -0.1347 H   0  0
    7.0645  -19.9046   -0.8385 H   0  0
    6.4957  -18.6939   -1.9243 H   0  0
    5.4525  -17.3791   -0.1235 H   0  0
    5.8173  -18.5888    1.0817 H   0  0
    7.9805  -19.1687    1.3745 H   0  0
   10.1982  -22.0013    1.7206 H   0  0
   11.9434  -23.5588    0.8425 H   0  0
   10.7946  -24.1495   -0.3816 H   0  0
   10.4714  -24.4326    1.3224 H   0  0
   11.7149  -21.1726   -0.1233 H   0  0
   10.1043  -20.4382   -0.2486 H   0  0
   10.5417  -21.7501   -1.3309 H   0  0
   -9.8083  -21.1620    2.2104 H   0  0
  -12.2544  -21.3148    1.9525 H   0  0
  -13.2602  -21.4979   -0.3033 H   0  0
  -11.8164  -21.5215   -2.3149 H   0  0
   -9.3639  -21.3575   -2.0790 H   0  0
  1  2  2  0
  1 35  1  0
  2  3  1  0
  2 41  1  0
  3  4  2  0
  3 42  1  0
  4  5  1  0
  4  7  1  0
  5  6  2  0
  5 43  1  0
  6  1  1  0
  6 44  1  0
  7  8  2  0
  8  9  1  0
  9 10  2  0
  9 13  1  0
 10 11  1  0
 10 12  1  0
 11  7  1  0
 12 45  1  0
 12 46  1  0
 12 47  1  0
 13 14  1  0
 13 48  1  0
 13 49  1  0
 14 15  1  0
 14 50  1  0
 14 51  1  0
 15 16  1  0
 16 17  2  0
 17 18  1  0
 17 52  1  0
 18 19  2  0
 18 22  1  0
 19 20  1  0
 19 24  1  0
 20 21  2  0
 20 53  1  0
 21 16  1  0
 21 54  1  0
 22 23  1  0
 22 55  1  0
 22 56  1  0
 23 29  1  0
 23 57  1  0
 24 25  1  0
 24 58  1  0
 24 59  1  0
 25 26  1  0
 25 60  1  0
 25 61  1  0
 26 27  1  0
 26 28  2  0
 27 62  1  0
 29 30  1  0
 29 31  2  0
 30 32  1  0
 32 33  1  0
 32 34  1  0
 32 63  1  0
 33 64  1  0
 33 65  1  0
 33 66  1  0
 34 67  1  0
 34 68  1  0
 34 69  1  0
 35 36  2  0
 36 37  1  0
 36 70  1  0
 37 38  2  0
 37 71  1  0
 38 39  1  0
 38 72  1  0
 39 40  2  0
 39 73  1  0
 40 35  1  0
 40 74  1  0
M  END
> <Name>
CHEMBL220622

> <Clean Energy>
45.591499

> <chembl_id>
CHEMBL220622

> <chembl_pref_name>
None

> <efficacy>
0.92

> <Forcefield>
MMFF

> <ForcefieldBase>
MMFF

> <ForcefieldFFML>
<?xml version="1.0" encoding="UTF-8"?>
<!DOCTYPE ffml SYSTEM "Ffml.dtd">
<ffml version="1.0">
<forcefield name="MMFF" derivedFrom="MMFF" base="MMFF">
<atomTypes>
<atomType
name="C100"
element="C"
mass="12.011"
annotation=""/>
<atomType
name="N101"
element="N"
mass="14.007"
annotation=""/>
<atomType
name="O102"
element="O"
mass="16"
annotation=""/>
<atomType
name="H103"
element="H"
mass="1.008"
annotation=""/>
</atomTypes>
<parameters>
</parameters>
</forcefield>
</ffml>

> <Initial Potential Energy>
97.06734

> <Initial RMS Gradient>
26.89004

> <Minimization Criteria>
STEEPD> Minimization exiting with gradient tolerance ( 3.0000000) satisfied.

> <CHARMm Energy>
-31.28315

> <Potential Energy>
-31.28315

> <RMS Gradient>
0.04154

> <Bond Energy>
6.89504

> <Angle Energy>
10.72421

> <STRBend>
-0.15937

> <Dihedral Energy>
6.65403

> <OOPLane>
0.10026

> <Van der Waals Energy>
67.63598

> <Electrostatic Energy>
-123.13329

> <Hydrogen Bond Energy>
0

> <Solvation Free Energy>
0

> <HasGasteigerCharges>
true

> <REMARK99>
REMARK  99  MacroMolecule created from Mol2 file
REMARK  99  CHEMBL220622
REMARK  99  PROTEIN
REMARK  99  GASTEIGER
REMARK  99
REMARK  99

$$$$
CHEMBL594034
  SciTegic05292516403D

 55 58  0  0  0  0            999 V2000
   -1.2013   -6.5924    2.1135 O   0  0
   -0.7767   -5.6210    1.4996 C   0  0
   -0.0939   -4.6556    2.1619 O   0  0
   -0.9767   -5.3085    0.0367 C   0  0  1  0  0  0
   -0.6159   -6.4768   -0.7504 N   0  0
    0.5491   -7.1441   -0.5392 N   0  0
    0.4736   -8.1264   -1.4419 C   0  0
   -0.6898   -7.9817   -2.2032 C   0  0
   -1.3711   -6.9086   -1.7910 N   0  0
   -2.4290   -4.8372   -0.1647 C   0  0
   -2.5528   -3.3430    0.0331 C   0  0
   -2.7748   -2.7991    1.3026 C   0  0
   -2.7930   -1.4152    1.4796 C   0  0
   -2.6033   -0.5565    0.3897 C   0  0
   -2.4182   -1.1039   -0.8847 C   0  0
   -2.3856   -2.4855   -1.0612 C   0  0
   -2.5606    0.9370    0.5909 C   0  0
   -1.1402    1.4898    0.4164 C   0  0
   -1.0797    2.9560    0.8302 C   0  0
    0.2318    3.6119    0.5756 C   0  0
    0.2981    4.7508   -0.1953 N   0  0
    1.5566    5.1551   -0.1142 C   0  0
    2.3458    4.2894    0.6094 O   0  0
    1.4901    3.3209    1.0544 C   0  0
    2.0586    2.2602    1.9035 C   0  0
    2.2124    6.3346   -0.6684 C   0  0
    3.5993    6.5258   -0.5579 C   0  0
    4.2089    7.6739   -1.0753 C   0  0
    3.4385    8.6444   -1.7138 C   0  0
    2.0615    8.4659   -1.8380 C   0  0
    1.4537    7.3179   -1.3197 C   0  0
   -0.0240   -5.0110    3.0744 H   0  0
   -0.2575   -4.5393   -0.2737 H   0  0
    1.2535   -8.8732   -1.5040 H   0  0
   -1.0615   -8.5834   -3.0207 H   0  0
   -2.8040   -5.0566   -1.1715 H   0  0
   -3.1181   -5.3524    0.5178 H   0  0
   -2.9178   -3.4460    2.1658 H   0  0
   -2.9390   -1.0078    2.4773 H   0  0
   -2.2774   -0.4554   -1.7468 H   0  0
   -2.2160   -2.8863   -2.0589 H   0  0
   -3.2449    1.4153   -0.1212 H   0  0
   -2.9373    1.1850    1.5914 H   0  0
   -0.4359    0.9042    1.0205 H   0  0
   -0.8196    1.3813   -0.6276 H   0  0
   -1.8604    3.5142    0.2976 H   0  0
   -1.3108    3.0457    1.8992 H   0  0
    2.9811    2.5945    2.3883 H   0  0
    2.2890    1.3754    1.3025 H   0  0
    1.3533    1.9699    2.6880 H   0  0
    4.2111    5.7710   -0.0652 H   0  0
    5.2835    7.8090   -0.9791 H   0  0
    3.9111    9.5385   -2.1147 H   0  0
    1.4548    9.2164   -2.3373 H   0  0
    0.3769    7.1893   -1.4205 H   0  0
  2  1  2  0
  2  3  1  0
  2  4  1  0
  3 32  1  0
  4  5  1  0
  4 33  1  0
  5  6  1  0
  5  9  1  0
  7  6  2  0
  7  8  1  0
  7 34  1  0
  8  9  2  0
  8 35  1  0
 10  4  1  0
 10 11  1  0
 10 36  1  0
 10 37  1  0
 11 12  2  0
 11 16  1  0
 12 13  1  0
 12 38  1  0
 13 14  2  0
 13 39  1  0
 14 15  1  0
 14 17  1  0
 15 16  2  0
 15 40  1  0
 16 41  1  0
 17 18  1  0
 17 42  1  0
 17 43  1  0
 18 19  1  0
 18 44  1  0
 18 45  1  0
 19 20  1  0
 19 46  1  0
 19 47  1  0
 20 21  1  0
 20 24  2  0
 22 21  2  0
 22 23  1  0
 22 26  1  0
 24 23  1  0
 24 25  1  0
 25 48  1  0
 25 49  1  0
 25 50  1  0
 26 27  1  0
 26 31  2  0
 27 28  2  0
 27 51  1  0
 28 29  1  0
 28 52  1  0
 29 30  2  0
 29 53  1  0
 30 31  1  0
 30 54  1  0
 31 55  1  0
M  END
> <Name>
CHEMBL594034

> <Clean Energy>
63.177601

> <chembl_id>
CHEMBL594034

> <chembl_pref_name>
None

> <efficacy>
1.119565217

> <Forcefield>
MMFF

> <ForcefieldBase>
MMFF

> <ForcefieldFFML>
<?xml version="1.0" encoding="UTF-8"?>
<!DOCTYPE ffml SYSTEM "Ffml.dtd">
<ffml version="1.0">
<forcefield name="MMFF" derivedFrom="MMFF" base="MMFF">
<atomTypes>
<atomType
name="O100"
element="O"
mass="16"
annotation=""/>
<atomType
name="C101"
element="C"
mass="12.011"
annotation=""/>
<atomType
name="N102"
element="N"
mass="14.007"
annotation=""/>
<atomType
name="H103"
element="H"
mass="1.008"
annotation=""/>
</atomTypes>
<parameters>
</parameters>
</forcefield>
</ffml>

> <Initial Potential Energy>
118.34527

> <Initial RMS Gradient>
31.57205

> <Minimization Criteria>
STEEPD> Minimization exiting with gradient tolerance ( 3.0000000) satisfied.

> <CHARMm Energy>
27.68767

> <Potential Energy>
27.68767

> <RMS Gradient>
0.05553

> <Bond Energy>
4.91658

> <Angle Energy>
7.00411

> <STRBend>
0.17486

> <Dihedral Energy>
1.85716

> <OOPLane>
0.13491

> <Van der Waals Energy>
44.87025

> <Electrostatic Energy>
-31.2702

> <Hydrogen Bond Energy>
0

> <Solvation Free Energy>
0

> <HasGasteigerCharges>
true

> <REMARK99>
REMARK  99  MacroMolecule created from Mol2 file
REMARK  99  CHEMBL594034
REMARK  99  PROTEIN
REMARK  99  GASTEIGER
REMARK  99
REMARK  99

$$$$
CHEMBL484264
  SciTegic05292516403D

 49 51  0  0  0  0            999 V2000
   -6.3935  -19.5295    0.6913 C   0  0
   -6.2838  -20.8440    0.2383 C   0  0
   -5.0714  -21.3131   -0.2808 C   0  0
   -3.9690  -20.4453   -0.3416 C   0  0
   -4.0755  -19.1267    0.1167 C   0  0
   -5.2939  -18.6728    0.6326 C   0  0
   -2.9228  -18.1984    0.0692 C   0  0
   -1.5915  -18.6170   -0.4524 C   0  0
   -2.9858  -16.9588    0.4439 N   0  0
   -1.7004  -16.3996    0.2417 O   0  0
   -0.7710  -17.4895    0.1330 C   0  0  2  0  0  0
   -4.9305  -22.7461   -0.7425 C   0  0
   -4.4326  -23.6601    0.3815 C   0  0  2  0  0  0
   -3.8227  -24.9130   -0.2412 C   0  0
   -5.5483  -24.0853    1.1927 O   0  0
   -5.4415  -23.6399    2.5473 C   0  0
   -6.6891  -24.0734    3.2897 C   0  0
   -4.5319  -26.0326    0.0461 O   0  0
   -2.8128  -24.9245   -0.9292 O   0  0
    0.4125  -17.0678   -0.7358 C   0  0
    1.4028  -18.1812   -0.9753 C   0  0
    2.1401  -18.7247    0.0863 C   0  0
    3.0554  -19.7531   -0.1418 C   0  0
    3.2425  -20.2465   -1.4313 C   0  0
    2.5250  -19.7057   -2.4960 C   0  0
    1.6097  -18.6770   -2.2704 C   0  0
   -7.3381  -19.1684    1.0912 H   0  0
   -7.1512  -21.4999    0.2965 H   0  0
   -3.0349  -20.8167   -0.7555 H   0  0
   -5.3964  -17.6494    0.9892 H   0  0
   -1.2602  -19.5920   -0.0900 H   0  0
   -1.6237  -18.6006   -1.5464 H   0  0
   -0.4406  -17.7399    1.1494 H   0  0
   -5.8987  -23.0976   -1.1227 H   0  0
   -4.2455  -22.7630   -1.6000 H   0  0
   -3.6509  -23.1959    0.9963 H   0  0
   -4.5562  -24.0909    3.0084 H   0  0
   -5.3486  -22.5497    2.5789 H   0  0
   -6.6500  -23.7581    4.3361 H   0  0
   -6.8019  -25.1619    3.2520 H   0  0
   -7.5825  -23.6442    2.8242 H   0  0
   -5.3108  -25.7780    0.5970 H   0  0
    0.0441  -16.6694   -1.6905 H   0  0
    0.9319  -16.2226   -0.2653 H   0  0
    2.0258  -18.3349    1.0957 H   0  0
    3.6488  -20.1491    0.6796 H   0  0
    3.9767  -21.0279   -1.6134 H   0  0
    2.7067  -20.0630   -3.5077 H   0  0
    1.0780  -18.2496   -3.1184 H   0  0
  1  2  2  0
  1 27  1  0
  2  3  1  0
  2 28  1  0
  3  4  2  0
  3 12  1  0
  4  5  1  0
  4 29  1  0
  5  6  2  0
  5  7  1  0
  6  1  1  0
  6 30  1  0
  7  8  1  0
  7  9  2  0
  8 11  1  0
  8 31  1  0
  8 32  1  0
  9 10  1  0
 10 11  1  0
 11 20  1  0
 11 33  1  0
 12 13  1  0
 12 34  1  0
 12 35  1  0
 13 14  1  0
 13 15  1  0
 13 36  1  0
 14 18  1  0
 14 19  2  0
 15 16  1  0
 16 17  1  0
 16 37  1  0
 16 38  1  0
 17 39  1  0
 17 40  1  0
 17 41  1  0
 18 42  1  0
 20 21  1  0
 20 43  1  0
 20 44  1  0
 21 22  2  0
 22 23  1  0
 22 45  1  0
 23 24  2  0
 23 46  1  0
 24 25  1  0
 24 47  1  0
 25 26  2  0
 25 48  1  0
 26 21  1  0
 26 49  1  0
M  END
> <Name>
CHEMBL484264

> <Clean Energy>
46.778099

> <chembl_id>
CHEMBL484264

> <chembl_pref_name>
None

> <efficacy>
1.02

> <Forcefield>
MMFF

> <ForcefieldBase>
MMFF

> <ForcefieldFFML>
<?xml version="1.0" encoding="UTF-8"?>
<!DOCTYPE ffml SYSTEM "Ffml.dtd">
<ffml version="1.0">
<forcefield name="MMFF" derivedFrom="MMFF" base="MMFF">
<atomTypes>
<atomType
name="C100"
element="C"
mass="12.011"
annotation=""/>
<atomType
name="N101"
element="N"
mass="14.007"
annotation=""/>
<atomType
name="O102"
element="O"
mass="16"
annotation=""/>
<atomType
name="H103"
element="H"
mass="1.008"
annotation=""/>
</atomTypes>
<parameters>
</parameters>
</forcefield>
</ffml>

> <Initial Potential Energy>
195.69441

> <Initial RMS Gradient>
30.07054

> <Minimization Criteria>
STEEPD> Minimization exiting with gradient tolerance ( 3.0000000) satisfied.

> <CHARMm Energy>
83.04099

> <Potential Energy>
83.04099

> <RMS Gradient>
0.01434

> <Bond Energy>
4.59099

> <Angle Energy>
8.98895

> <STRBend>
0.86746

> <Dihedral Energy>
5.2826

> <OOPLane>
0.03419

> <Van der Waals Energy>
45.50863

> <Electrostatic Energy>
17.76817

> <Hydrogen Bond Energy>
0

> <Solvation Free Energy>
0

> <HasGasteigerCharges>
true

> <REMARK99>
REMARK  99  MacroMolecule created from Mol2 file
REMARK  99  CHEMBL484264
REMARK  99  PROTEIN
REMARK  99  GASTEIGER
REMARK  99
REMARK  99

$$$$
CHEMBL5087638
  SciTegic05292516403D

 61 64  0  0  0  0            999 V2000
   47.0413  -13.9672    0.7019 C   0  0
   46.8003  -13.4224   -0.7169 C   0  0
   47.5517  -14.2945   -1.7358 C   0  0
   42.8134  -13.1144    1.3992 C   0  0
   42.2529  -14.3983    1.3582 C   0  0
   42.8037  -15.3504    0.4943 C   0  0
   43.8844  -15.0253   -0.3408 C   0  0
   44.4389  -13.7331   -0.2772 C   0  0
   43.8814  -12.7576    0.5649 C   0  0
   44.3409  -11.3282    0.5671 C   0  0
   44.4162  -16.0710   -1.2804 C   0  0
   45.4255  -13.4056   -1.1655 O   0  0
   47.3597  -11.9860   -0.8570 C   0  0
   48.6514  -11.8304   -0.4758 O   0  0
   46.7353  -11.0281   -1.2962 O   0  0
   40.9774  -14.6846    2.1210 C   0  0
   39.8517  -14.0700    1.4576 N   0  0
   39.4008  -12.7661    1.6927 C   0  0
   38.5528  -12.4823    0.6375 N   0  0
   38.5493  -13.6062   -0.1149 C   0  0
   39.2941  -14.5766    0.3100 N   0  0
   39.7508  -12.0539    2.6230 O   0  0
   37.8716  -11.2721    0.3794 C   0  0
   37.8128  -10.2490    1.3345 C   0  0
   37.1121   -9.0639    1.0862 C   0  0
   36.4439   -8.8614   -0.1257 C   0  0
   36.5293   -9.8669   -1.0960 C   0  0
   37.2278  -11.0541   -0.8475 C   0  0
   35.6552   -7.6455   -0.3568 C   0  0
   36.2375   -6.3731   -0.2609 C   0  0
   35.4787   -5.2182   -0.4598 C   0  0
   34.1210   -5.3151   -0.7574 C   0  0
   33.5284   -6.5729   -0.8578 C   0  0
   34.2884   -7.7266   -0.6612 C   0  0
   46.6039  -14.9625    0.8323 H   0  0
   46.6058  -13.3117    1.4633 H   0  0
   48.1084  -14.0537    0.9325 H   0  0
   47.4191  -13.9058   -2.7528 H   0  0
   47.1676  -15.3191   -1.7392 H   0  0
   48.6267  -14.3398   -1.5325 H   0  0
   42.3624  -12.3582    2.0426 H   0  0
   42.3524  -16.3393    0.4301 H   0  0
   43.6784  -10.6947    1.1675 H   0  0
   44.3253  -10.9237   -0.4491 H   0  0
   45.3420  -11.2469    0.9974 H   0  0
   45.2998  -16.5484   -0.8469 H   0  0
   44.6737  -15.6347   -2.2502 H   0  0
   43.6677  -16.8472   -1.4728 H   0  0
   49.1449  -12.6261   -0.2027 H   0  0
   40.7935  -15.7620    2.1988 H   0  0
   41.0653  -14.2867    3.1387 H   0  0
   37.9414  -13.6646   -1.0236 H   0  0
   38.2906  -10.3445    2.3056 H   0  0
   37.0568   -8.3073    1.8689 H   0  0
   36.0414   -9.7297   -2.0602 H   0  0
   37.2728  -11.7786   -1.6539 H   0  0
   37.3006   -6.2806   -0.0397 H   0  0
   35.9564   -4.2468   -0.3818 H   0  0
   33.5290   -4.4158   -0.9091 H   0  0
   32.4713   -6.6660   -1.0846 H   0  0
   33.8026   -8.6977   -0.7292 H   0  0
  1 35  1  0
  1 36  1  0
  1 37  1  0
  2  1  1  0
  2 13  1  0
  3  2  1  0
  3 38  1  0
  3 39  1  0
  3 40  1  0
  4  5  2  0
  4 41  1  0
  5  6  1  0
  5 16  1  0
  6  7  2  0
  6 42  1  0
  7  8  1  0
  7 11  1  0
  8  9  2  0
  8 12  1  0
  9  4  1  0
  9 10  1  0
 10 43  1  0
 10 44  1  0
 10 45  1  0
 11 46  1  0
 11 47  1  0
 11 48  1  0
 12  2  1  0
 13 14  1  0
 13 15  2  0
 14 49  1  0
 16 17  1  0
 16 50  1  0
 16 51  1  0
 17 18  1  0
 18 19  1  0
 18 22  2  0
 19 20  1  0
 19 23  1  0
 20 21  2  0
 20 52  1  0
 21 17  1  0
 23 24  2  0
 24 25  1  0
 24 53  1  0
 25 26  2  0
 25 54  1  0
 26 27  1  0
 26 29  1  0
 27 28  2  0
 27 55  1  0
 28 23  1  0
 28 56  1  0
 29 30  2  0
 30 31  1  0
 30 57  1  0
 31 32  2  0
 31 58  1  0
 32 33  1  0
 32 59  1  0
 33 34  2  0
 33 60  1  0
 34 29  1  0
 34 61  1  0
M  END
> <Name>
CHEMBL5087638

> <Clean Energy>
58.188702

> <chembl_id>
CHEMBL5087638

> <chembl_pref_name>
None

> <efficacy>
1.33

> <Forcefield>
MMFF

> <ForcefieldBase>
MMFF

> <ForcefieldFFML>
<?xml version="1.0" encoding="UTF-8"?>
<!DOCTYPE ffml SYSTEM "Ffml.dtd">
<ffml version="1.0">
<forcefield name="MMFF" derivedFrom="MMFF" base="MMFF">
<atomTypes>
<atomType
name="C100"
element="C"
mass="12.011"
annotation=""/>
<atomType
name="O101"
element="O"
mass="16"
annotation=""/>
<atomType
name="N102"
element="N"
mass="14.007"
annotation=""/>
<atomType
name="H103"
element="H"
mass="1.008"
annotation=""/>
</atomTypes>
<parameters>
</parameters>
</forcefield>
</ffml>

> <Initial Potential Energy>
259.20443

> <Initial RMS Gradient>
32.33097

> <Minimization Criteria>
STEEPD> Minimization exiting with gradient tolerance ( 3.0000000) satisfied.

> <CHARMm Energy>
115.74101

> <Potential Energy>
115.74101

> <RMS Gradient>
0.11588

> <Bond Energy>
8.27282

> <Angle Energy>
28.65046

> <STRBend>
-0.64769

> <Dihedral Energy>
15.53671

> <OOPLane>
0.49551

> <Van der Waals Energy>
69.11119

> <Electrostatic Energy>
-5.67798

> <Hydrogen Bond Energy>
0

> <Solvation Free Energy>
0

> <HasGasteigerCharges>
true

> <REMARK99>
REMARK  99  MacroMolecule created from Mol2 file
REMARK  99  CHEMBL5087638
REMARK  99  PROTEIN
REMARK  99  GASTEIGER
REMARK  99
REMARK  99

$$$$
CHEMBL5072619
  SciTegic05292516403D

 57 59  0  0  0  0            999 V2000
   23.0856  -13.1646    1.2511 C   0  0
   23.4174  -13.0826   -0.2526 C   0  0
   24.5068  -14.1166   -0.5827 C   0  0
   19.0337  -12.5213    0.2302 C   0  0
   18.5279  -13.7940    0.5285 C   0  0
   19.2964  -14.9158    0.1958 C   0  0
   20.5581  -14.7787   -0.4038 C   0  0
   21.0727  -13.4906   -0.6303 C   0  0
   20.2833  -12.3562   -0.3878 C   0  0
   20.7249  -10.9703   -0.7584 C   0  0
   21.3422  -16.0136   -0.7414 C   0  0
   22.3292  -13.3780   -1.1612 O   0  0
   24.0017  -11.6973   -0.6223 C   0  0
   24.9440  -11.2225    0.2282 O   0  0
   23.7077  -11.0527   -1.6204 O   0  0
   17.1972  -13.9596    1.2248 C   0  0
   16.1143  -13.2746    0.5590 N   0  0
   15.5748  -12.0369    0.9308 C   0  0
   14.5764  -11.7829    0.0051 N   0  0
   14.6046  -12.8497   -0.8265 C   0  0
   15.4837  -13.7634   -0.5554 N   0  0
   15.9440  -11.3731    1.8887 O   0  0
   13.7114  -10.6633   -0.0545 C   0  0
   13.8803   -9.5644    0.7986 C   0  0
   13.0215   -8.4596    0.7460 C   0  0
   11.9603   -8.4223   -0.1602 C   0  0
   11.7752   -9.5126   -1.0126 C   0  0
   12.6440  -10.6133   -0.9654 C   0  0
   11.0229   -7.2439   -0.1981 C   0  0
    9.8402   -7.4327    0.7394 C   0  0
   22.5930  -14.1072    1.5101 H   0  0
   22.4262  -12.3468    1.5598 H   0  0
   23.9829  -13.0991    1.8752 H   0  0
   24.7591  -14.0892   -1.6493 H   0  0
   24.1621  -15.1331   -0.3672 H   0  0
   25.4274  -13.9418   -0.0156 H   0  0
   18.4400  -11.6404    0.4712 H   0  0
   18.9112  -15.9133    0.4027 H   0  0
   19.8762  -10.2776   -0.7805 H   0  0
   21.1553  -10.9630   -1.7637 H   0  0
   21.4475  -10.5907   -0.0318 H   0  0
   22.0245  -16.2593    0.0774 H   0  0
   21.9164  -15.8787   -1.6635 H   0  0
   20.6777  -16.8688   -0.9063 H   0  0
   25.2533  -11.8173    0.9354 H   0  0
   16.9191  -15.0174    1.2952 H   0  0
   17.2918  -13.5765    2.2472 H   0  0
   13.9167  -12.9078   -1.6762 H   0  0
   14.6879   -9.5215    1.5235 H   0  0
   13.2005   -7.6285    1.4241 H   0  0
   10.9508   -9.5171   -1.7232 H   0  0
   12.4328  -11.4264   -1.6524 H   0  0
   11.5670   -6.3303    0.0716 H   0  0
   10.6632   -7.0913   -1.2231 H   0  0
    9.1786   -6.5621    0.6939 H   0  0
   10.1706   -7.5538    1.7769 H   0  0
    9.2551   -8.3179    0.4678 H   0  0
  1 31  1  0
  1 32  1  0
  1 33  1  0
  2  1  1  0
  2 13  1  0
  3  2  1  0
  3 34  1  0
  3 35  1  0
  3 36  1  0
  4  5  2  0
  4 37  1  0
  5  6  1  0
  5 16  1  0
  6  7  2  0
  6 38  1  0
  7  8  1  0
  7 11  1  0
  8  9  2  0
  8 12  1  0
  9  4  1  0
  9 10  1  0
 10 39  1  0
 10 40  1  0
 10 41  1  0
 11 42  1  0
 11 43  1  0
 11 44  1  0
 12  2  1  0
 13 14  1  0
 13 15  2  0
 14 45  1  0
 16 17  1  0
 16 46  1  0
 16 47  1  0
 17 18  1  0
 18 19  1  0
 18 22  2  0
 19 20  1  0
 19 23  1  0
 20 21  2  0
 20 48  1  0
 21 17  1  0
 23 24  2  0
 24 25  1  0
 24 49  1  0
 25 26  2  0
 25 50  1  0
 26 27  1  0
 26 29  1  0
 27 28  2  0
 27 51  1  0
 28 23  1  0
 28 52  1  0
 29 30  1  0
 29 53  1  0
 29 54  1  0
 30 55  1  0
 30 56  1  0
 30 57  1  0
M  END
> <Name>
CHEMBL5072619

> <Clean Energy>
59.388901

> <chembl_id>
CHEMBL5072619

> <chembl_pref_name>
None

> <efficacy>
1.49

> <Forcefield>
MMFF

> <ForcefieldBase>
MMFF

> <ForcefieldFFML>
<?xml version="1.0" encoding="UTF-8"?>
<!DOCTYPE ffml SYSTEM "Ffml.dtd">
<ffml version="1.0">
<forcefield name="MMFF" derivedFrom="MMFF" base="MMFF">
<atomTypes>
<atomType
name="C100"
element="C"
mass="12.011"
annotation=""/>
<atomType
name="O101"
element="O"
mass="16"
annotation=""/>
<atomType
name="N102"
element="N"
mass="14.007"
annotation=""/>
<atomType
name="H103"
element="H"
mass="1.008"
annotation=""/>
</atomTypes>
<parameters>
</parameters>
</forcefield>
</ffml>

> <Initial Potential Energy>
220.74926

> <Initial RMS Gradient>
29.61416

> <Minimization Criteria>
STEEPD> Minimization exiting with gradient tolerance ( 3.0000000) satisfied.

> <CHARMm Energy>
97.90546

> <Potential Energy>
97.90546

> <RMS Gradient>
0.12398

> <Bond Energy>
6.93854

> <Angle Energy>
28.99118

> <STRBend>
0.03352

> <Dihedral Energy>
5.98207

> <OOPLane>
0.09615

> <Van der Waals Energy>
56.26881

> <Electrostatic Energy>
-0.40481

> <Hydrogen Bond Energy>
0

> <Solvation Free Energy>
0

> <HasGasteigerCharges>
true

> <REMARK99>
REMARK  99  MacroMolecule created from Mol2 file
REMARK  99  CHEMBL5072619
REMARK  99  PROTEIN
REMARK  99  GASTEIGER
REMARK  99
REMARK  99

$$$$
CHEMBL2113106
  SciTegic05292516403D

 59 60  0  0  0  0            999 V2000
   -2.4194   -0.1473   -0.3312 C   0  0
   -2.4919   -1.5161   -0.0914 C   0  0
   -3.6482   -2.2215    0.0046 N   0  0
   -3.6427    0.5218   -0.4693 C   0  0
   -4.8094   -1.5595   -0.1380 C   0  0
   -4.8571   -0.1718   -0.3777 C   0  0
   -1.0916    0.5802   -0.4121 C   0  0  1  0  0  0
    0.3747    2.0004    1.1735 C   0  0
   -1.2874   -2.1759    0.0774 O   0  0
   -1.2868    1.8523   -1.0460 O   0  0
   -0.4322    0.7410    0.9816 C   0  0
   -6.0093   -2.2511   -0.0440 C   0  0
   -6.0937    0.4823   -0.5177 C   0  0
   -1.4258   -3.5874    0.2464 C   0  0
   -0.0354   -4.1865    0.4616 C   0  0
    2.2716   -4.5683   -0.4933 C   0  0
    0.8931   -3.9525   -0.7341 C   0  0
    3.2048   -4.3214   -1.6680 C   0  0
   -7.2406   -1.6039   -0.1806 C   0  0
   -7.2834   -0.2351   -0.4192 C   0  0
    1.7057    2.1466    1.2598 C   0  0
    2.7673    1.0899    1.1161 C   0  0
    4.0683    1.7015    0.5749 C   0  0
    5.1997    0.6780    0.4749 C   0  0
    6.5165    1.3292    0.1054 C   0  0
    7.4844    0.3746   -0.0343 O   0  0
    6.7142    2.5298   -0.0294 O   0  0
    8.7708    0.8979   -0.3719 C   0  0
   -3.6380    1.5950   -0.6507 H   0  0
   -0.4201    0.0193   -1.0743 H   0  0
   -0.2341    2.8974    1.3038 H   0  0
   -0.3993    2.2217   -1.1982 H   0  0
    0.1672   -0.1496    1.2058 H   0  0
   -1.2108    0.7585    1.7572 H   0  0
   -5.9868   -3.3224    0.1407 H   0  0
   -6.1335    1.5530   -0.7052 H   0  0
   -2.0369   -3.8072    1.1305 H   0  0
   -1.8865   -4.0348   -0.6432 H   0  0
    0.4158   -3.7314    1.3519 H   0  0
   -0.1333   -5.2616    0.6515 H   0  0
    2.7164   -4.1423    0.4136 H   0  0
    2.1740   -5.6480   -0.3312 H   0  0
    1.0045   -2.8771   -0.9172 H   0  0
    0.4469   -4.3894   -1.6358 H   0  0
    4.1828   -4.7738   -1.4766 H   0  0
    3.3531   -3.2492   -1.8321 H   0  0
    2.8023   -4.7579   -2.5875 H   0  0
   -8.1623   -2.1738   -0.1010 H   0  0
   -8.2397    0.2706   -0.5291 H   0  0
    2.0735    3.1533    1.4684 H   0  0
    2.9590    0.6518    2.1025 H   0  0
    2.4315    0.2885    0.4486 H   0  0
    3.8903    2.1460   -0.4131 H   0  0
    4.3838    2.5234    1.2316 H   0  0
    5.3344    0.1763    1.4396 H   0  0
    4.9535   -0.0699   -0.2867 H   0  0
    9.4631    0.0570   -0.4681 H   0  0
    9.1359    1.5579    0.4212 H   0  0
    8.7316    1.4251   -1.3303 H   0  0
  2  1  1  0
  3  2  2  0
  3  5  1  0
  4  1  2  0
  4 29  1  0
  5  6  2  0
  6  4  1  0
  7  1  1  0
  7 30  1  0
  8 11  1  0
  8 21  2  0
  8 31  1  0
  9  2  1  0
 10  7  1  0
 10 32  1  0
 11  7  1  0
 11 33  1  0
 11 34  1  0
 12  5  1  0
 12 19  2  0
 12 35  1  0
 13  6  1  0
 13 36  1  0
 14  9  1  0
 14 37  1  0
 14 38  1  0
 15 14  1  0
 15 39  1  0
 15 40  1  0
 16 17  1  0
 16 41  1  0
 16 42  1  0
 17 15  1  0
 17 43  1  0
 17 44  1  0
 18 16  1  0
 18 45  1  0
 18 46  1  0
 18 47  1  0
 19 20  1  0
 19 48  1  0
 20 13  2  0
 20 49  1  0
 21 22  1  0
 21 50  1  0
 22 23  1  0
 22 51  1  0
 22 52  1  0
 23 24  1  0
 23 53  1  0
 23 54  1  0
 24 25  1  0
 24 55  1  0
 24 56  1  0
 25 26  1  0
 25 27  2  0
 26 28  1  0
 28 57  1  0
 28 58  1  0
 28 59  1  0
M  END
> <Name>
CHEMBL2113106

> <Clean Energy>
29.898701

> <chembl_id>
CHEMBL2113106

> <chembl_pref_name>
None

> <efficacy>
1.41

> <Forcefield>
MMFF

> <ForcefieldBase>
MMFF

> <ForcefieldFFML>
<?xml version="1.0" encoding="UTF-8"?>
<!DOCTYPE ffml SYSTEM "Ffml.dtd">
<ffml version="1.0">
<forcefield name="MMFF" derivedFrom="MMFF" base="MMFF">
<atomTypes>
<atomType
name="C100"
element="C"
mass="12.011"
annotation=""/>
<atomType
name="N101"
element="N"
mass="14.007"
annotation=""/>
<atomType
name="O102"
element="O"
mass="16"
annotation=""/>
<atomType
name="H103"
element="H"
mass="1.008"
annotation=""/>
</atomTypes>
<parameters>
</parameters>
</forcefield>
</ffml>

> <Initial Potential Energy>
177.44002

> <Initial RMS Gradient>
32.6757

> <Minimization Criteria>
STEEPD> Minimization exiting with gradient tolerance ( 3.0000000) satisfied.

> <CHARMm Energy>
24.73071

> <Potential Energy>
24.73071

> <RMS Gradient>
0.0177

> <Bond Energy>
5.00102

> <Angle Energy>
10.77407

> <STRBend>
1.00653

> <Dihedral Energy>
-11.50232

> <OOPLane>
0.02154

> <Van der Waals Energy>
52.68844

> <Electrostatic Energy>
-33.25856

> <Hydrogen Bond Energy>
0

> <Solvation Free Energy>
0

> <HasGasteigerCharges>
true

> <REMARK99>
REMARK  99  MacroMolecule created from Mol2 file
REMARK  99  CHEMBL2113106
REMARK  99  PROTEIN
REMARK  99  GASTEIGER
REMARK  99
REMARK  99

$$$$
CHEMBL395191
  SciTegic05292516403D

 73 77  0  0  0  0            999 V2000
    1.6699  -12.0208    0.2870 C   0  0
    3.0552  -11.8855    0.4027 C   0  0
    3.6476  -10.6188    0.5271 C   0  0
    2.8161   -9.4890    0.5320 C   0  0
    1.4303   -9.6230    0.4159 C   0  0
    0.8599  -10.8882    0.2934 C   0  0
    5.0968  -10.5092    0.6528 C   0  0
    6.0166  -11.4580    0.6435 N   0  0
    7.2162  -10.7908    0.8213 C   0  0
    6.9635   -9.4396    0.9382 C   0  0
    5.6188   -9.2492    0.8069 O   0  0
    7.7765   -8.2362    1.1813 C   0  0
    8.5021  -11.5355    0.9496 C   0  0
    9.5379  -11.2439   -0.1392 C   0  0
   10.7231  -11.9673    0.2174 O   0  0
   11.8870  -11.7291   -0.4559 C   0  0
   13.0116  -12.3468    0.0951 C   0  0
   14.2821  -12.2030   -0.4818 C   0  0
   14.4688  -11.4291   -1.6328 C   0  0
   13.3230  -10.8264   -2.1903 C   0  0
   12.0474  -10.9700   -1.6089 C   0  0
   15.8150  -11.2463   -2.3385 C   0  0
   17.0184  -11.3851   -1.4762 N   0  0
   18.1292  -10.5167   -1.9374 C   0  0
   17.4750  -12.8038   -1.4316 C   0  0
   18.1298  -13.0391   -0.0679 C   0  0
   18.9374  -13.9185    0.1792 O   0  0
   17.6641  -12.1703    0.8720 O   0  0
   18.1757   -9.1521   -1.2728 C   0  0
   19.3731   -8.4197   -1.3515 C   0  0
   19.4908   -7.1715   -0.7361 C   0  0
   18.4032   -6.6003   -0.0783 C   0  0
   17.2036   -7.3052   -0.0053 C   0  0
   17.0945   -8.5710   -0.5939 C   0  0
   20.6803   -6.4963   -0.8649 O   0  0
   21.4330   -6.2892    0.2727 C   0  0
   21.3770   -7.0831    1.4220 C   0  0
   22.2158   -6.8032    2.5051 C   0  0
   23.1175   -5.7407    2.4393 C   0  0
   23.1845   -4.9570    1.2882 C   0  0
   22.3467   -5.2332    0.2063 C   0  0
    1.2260  -13.0086    0.1924 H   0  0
    3.6809  -12.7771    0.3973 H   0  0
    3.2427   -8.4928    0.6270 H   0  0
    0.7988   -8.7389    0.4221 H   0  0
   -0.2173  -10.9928    0.2034 H   0  0
    7.2324   -7.5135    1.7973 H   0  0
    8.0345   -7.7551    0.2331 H   0  0
    8.7053   -8.4891    1.7016 H   0  0
    8.9401  -11.3136    1.9318 H   0  0
    8.2996  -12.6143    0.9658 H   0  0
    9.1749  -11.5820   -1.1166 H   0  0
    9.7509  -10.1692   -0.1789 H   0  0
   12.9007  -12.9529    0.9923 H   0  0
   15.1080  -12.7132    0.0025 H   0  0
   13.4117  -10.2296   -3.0974 H   0  0
   11.2050  -10.4842   -2.0895 H   0  0
   15.8667  -11.9283   -3.1973 H   0  0
   15.7978  -10.2297   -2.7542 H   0  0
   19.0871  -10.9949   -1.6895 H   0  0
   18.1153  -10.3986   -3.0287 H   0  0
   16.6404  -13.5095   -1.4983 H   0  0
   18.1832  -13.0306   -2.2360 H   0  0
   17.0320  -11.5502    0.4241 H   0  0
   20.2359   -8.8251   -1.8770 H   0  0
   18.4988   -5.6154    0.3717 H   0  0
   16.3426   -6.8795    0.5077 H   0  0
   16.1421   -9.0897   -0.5066 H   0  0
   20.6968   -7.9280    1.4918 H   0  0
   22.1680   -7.4215    3.3980 H   0  0
   23.7732   -5.5255    3.2812 H   0  0
   23.8929   -4.1337    1.2332 H   0  0
   22.4039   -4.6252   -0.6925 H   0  0
  1  2  2  0
  1 42  1  0
  2  3  1  0
  2 43  1  0
  3  4  2  0
  3  7  1  0
  4  5  1  0
  4 44  1  0
  5  6  2  0
  5 45  1  0
  6  1  1  0
  6 46  1  0
  7  8  2  0
  8  9  1  0
  9 10  2  0
  9 13  1  0
 10 11  1  0
 10 12  1  0
 11  7  1  0
 12 47  1  0
 12 48  1  0
 12 49  1  0
 13 14  1  0
 13 50  1  0
 13 51  1  0
 14 15  1  0
 14 52  1  0
 14 53  1  0
 15 16  1  0
 16 17  2  0
 17 18  1  0
 17 54  1  0
 18 19  2  0
 18 55  1  0
 19 20  1  0
 19 22  1  0
 20 21  2  0
 20 56  1  0
 21 16  1  0
 21 57  1  0
 22 23  1  0
 22 58  1  0
 22 59  1  0
 23 24  1  0
 23 25  1  0
 24 29  1  0
 24 60  1  0
 24 61  1  0
 25 26  1  0
 25 62  1  0
 25 63  1  0
 26 27  2  0
 26 28  1  0
 28 64  1  0
 29 30  2  0
 30 31  1  0
 30 65  1  0
 31 32  2  0
 31 35  1  0
 32 33  1  0
 32 66  1  0
 33 34  2  0
 33 67  1  0
 34 29  1  0
 34 68  1  0
 35 36  1  0
 36 37  2  0
 37 38  1  0
 37 69  1  0
 38 39  2  0
 38 70  1  0
 39 40  1  0
 39 71  1  0
 40 41  2  0
 40 72  1  0
 41 36  1  0
 41 73  1  0
M  END
> <Name>
CHEMBL395191

> <Clean Energy>
48.611401

> <chembl_id>
CHEMBL395191

> <chembl_pref_name>
None

> <efficacy>
0.975

> <Forcefield>
MMFF

> <ForcefieldBase>
MMFF

> <ForcefieldFFML>
<?xml version="1.0" encoding="UTF-8"?>
<!DOCTYPE ffml SYSTEM "Ffml.dtd">
<ffml version="1.0">
<forcefield name="MMFF" derivedFrom="MMFF" base="MMFF">
<atomTypes>
<atomType
name="C100"
element="C"
mass="12.011"
annotation=""/>
<atomType
name="N101"
element="N"
mass="14.007"
annotation=""/>
<atomType
name="O102"
element="O"
mass="16"
annotation=""/>
<atomType
name="H103"
element="H"
mass="1.008"
annotation=""/>
</atomTypes>
<parameters>
</parameters>
</forcefield>
</ffml>

> <Initial Potential Energy>
320.93541

> <Initial RMS Gradient>
36.31827

> <Minimization Criteria>
CONJUG> Minimization exiting with gradient tolerance ( 0.0100000) satisfied.

> <CHARMm Energy>
115.7333

> <Potential Energy>
115.7333

> <RMS Gradient>
0.00906

> <Bond Energy>
9.58569

> <Angle Energy>
19.36536

> <STRBend>
1.0144

> <Dihedral Energy>
7.34879

> <OOPLane>
0.14643

> <Van der Waals Energy>
83.61538

> <Electrostatic Energy>
-5.34274

> <Hydrogen Bond Energy>
0

> <Solvation Free Energy>
0

> <HasGasteigerCharges>
true

> <REMARK99>
REMARK  99  MacroMolecule created from Mol2 file
REMARK  99  CHEMBL395191
REMARK  99  PROTEIN
REMARK  99  GASTEIGER
REMARK  99
REMARK  99

$$$$
CHEMBL483035
  SciTegic05292516403D

 53 55  0  0  0  0            999 V2000
    8.0256    2.6121    0.2507 C   0  0
    7.9383    1.2252    0.1278 C   0  0
    9.0891    0.4410   -0.0582 C   0  0
   10.3313    1.0893   -0.1479 C   0  0
   10.4254    2.4858   -0.0209 C   0  0
    9.2678    3.2422    0.1819 C   0  0
   11.7347    3.1760   -0.0796 C   0  0
   12.9936    2.4335   -0.3498 C   0  0
   11.8943    4.4432    0.1384 N   0  0
   13.2889    4.7016    0.0521 O   0  0
   13.8975    3.6104   -0.6600 C   0  0  1  0  0  0
   15.3451    3.3801   -0.2661 C   0  0
   15.9407    2.1234   -0.4717 C   0  0
   17.2585    1.8757   -0.0840 C   0  0
   18.0220    2.8950    0.4721 C   0  0
   17.4558    4.1573    0.6604 C   0  0
   16.1316    4.4041    0.2845 C   0  0
    8.9239   -1.0607   -0.2230 C   0  0
   10.0337   -1.9325    0.3790 C   0  0  1  0  0  0
    9.4785   -3.3226    0.6443 C   0  0
   11.1103   -2.0476   -0.5774 O   0  0
   12.3777   -2.2679    0.0576 C   0  0
   13.4372   -2.3602   -1.0218 C   0  0
    9.6141   -4.1651   -0.4125 O   0  0
    8.8945   -3.6486    1.6678 O   0  0
   19.3097    2.7366    0.9121 O   0  0
   20.4412    1.8846    0.0921 S   0  0
   20.4384    2.8046   -1.4347 C   0  0
   21.7282    2.0987    0.7287 O   0  0
   19.9426    0.5443   -0.1672 O   0  0
    7.1234    3.2021    0.4003 H   0  0
    6.9551    0.7595    0.1796 H   0  0
   11.2290    0.5021   -0.3159 H   0  0
    9.3114    4.3249    0.2846 H   0  0
   13.2785    1.8955    0.5612 H   0  0
   12.9197    1.7431   -1.1933 H   0  0
   13.8629    3.8590   -1.7286 H   0  0
   15.3779    1.3050   -0.9161 H   0  0
   17.6471    0.8692   -0.2073 H   0  0
   18.0442    4.9583    1.1077 H   0  0
   15.7105    5.3949    0.4502 H   0  0
    7.9677   -1.3444    0.2369 H   0  0
    8.8320   -1.2603   -1.2988 H   0  0
   10.4016   -1.5186    1.3260 H   0  0
   12.6047   -1.4321    0.7282 H   0  0
   12.3458   -3.1979    0.6348 H   0  0
   14.4255   -2.5294   -0.5854 H   0  0
   13.4652   -1.4387   -1.6130 H   0  0
   13.2112   -3.1771   -1.7150 H   0  0
   10.1886   -3.7271   -1.0830 H   0  0
   21.2398    2.4080   -2.0624 H   0  0
   20.6301    3.8561   -1.2131 H   0  0
   19.4824    2.6771   -1.9435 H   0  0
  1  2  2  0
  1 31  1  0
  2  3  1  0
  2 32  1  0
  3  4  2  0
  3 18  1  0
  4  5  1  0
  4 33  1  0
  5  6  2  0
  5  7  1  0
  6  1  1  0
  6 34  1  0
  7  8  1  0
  7  9  2  0
  8 11  1  0
  8 35  1  0
  8 36  1  0
  9 10  1  0
 10 11  1  0
 11 12  1  0
 11 37  1  0
 12 13  2  0
 13 14  1  0
 13 38  1  0
 14 15  2  0
 14 39  1  0
 15 16  1  0
 15 26  1  0
 16 17  2  0
 16 40  1  0
 17 12  1  0
 17 41  1  0
 18 19  1  0
 18 42  1  0
 18 43  1  0
 19 20  1  0
 19 21  1  0
 19 44  1  0
 20 24  1  0
 20 25  2  0
 21 22  1  0
 22 23  1  0
 22 45  1  0
 22 46  1  0
 23 47  1  0
 23 48  1  0
 23 49  1  0
 24 50  1  0
 26 27  1  0
 27 28  1  0
 27 29  2  0
 27 30  2  0
 28 51  1  0
 28 52  1  0
 28 53  1  0
M  END
> <Name>
CHEMBL483035

> <Clean Energy>
48.8484

> <chembl_id>
CHEMBL483035

> <chembl_pref_name>
None

> <efficacy>
0.95

> <Forcefield>
MMFF

> <ForcefieldBase>
MMFF

> <ForcefieldFFML>
<?xml version="1.0" encoding="UTF-8"?>
<!DOCTYPE ffml SYSTEM "Ffml.dtd">
<ffml version="1.0">
<forcefield name="MMFF" derivedFrom="MMFF" base="MMFF">
<atomTypes>
<atomType
name="C100"
element="C"
mass="12.011"
annotation=""/>
<atomType
name="N101"
element="N"
mass="14.007"
annotation=""/>
<atomType
name="O102"
element="O"
mass="16"
annotation=""/>
<atomType
name="S103"
element="S"
mass="32.066"
annotation=""/>
<atomType
name="H104"
element="H"
mass="1.008"
annotation=""/>
</atomTypes>
<parameters>
</parameters>
</forcefield>
</ffml>

> <Initial Potential Energy>
252.91706

> <Initial RMS Gradient>
42.13992

> <Minimization Criteria>
CONJUG> Minimization exiting with gradient tolerance ( 0.0100000) satisfied.

> <CHARMm Energy>
80.96112

> <Potential Energy>
80.96112

> <RMS Gradient>
0.00971

> <Bond Energy>
5.30198

> <Angle Energy>
14.22582

> <STRBend>
1.19171

> <Dihedral Energy>
8.66154

> <OOPLane>
0.20003

> <Van der Waals Energy>
50.31341

> <Electrostatic Energy>
1.06663

> <Hydrogen Bond Energy>
0

> <Solvation Free Energy>
0

> <HasGasteigerCharges>
true

> <REMARK99>
REMARK  99  MacroMolecule created from Mol2 file
REMARK  99  CHEMBL483035
REMARK  99  PROTEIN
REMARK  99  GASTEIGER
REMARK  99
REMARK  99

$$$$
CHEMBL2377528
  SciTegic05292516403D

 70 73  0  0  0  0            999 V2000
   12.9070  -19.1252    0.0759 C   0  0
   12.7072  -20.5072   -0.0859 C   0  0
   13.7773  -21.2805   -0.5681 C   0  0
   15.0027  -20.6899   -0.8959 C   0  0
   15.1789  -19.3128   -0.7315 C   0  0
   14.1282  -18.5301   -0.2497 C   0  0
   16.4408  -18.6387   -1.1238 C   0  0
   17.5916  -19.3318   -0.8543 N   0  0
   16.3852  -17.5329   -1.6485 O   0  0
   18.8974  -18.8828   -1.2788 C   0  0
   20.0615  -19.5062   -0.5217 C   0  0
   20.0472  -20.8000    0.0385 C   0  0
   21.1861  -21.2727    0.7031 C   0  0
   22.3425  -20.4929    0.8025 C   0  0
   22.4030  -19.2325    0.2106 C   0  0
   21.2515  -18.7494   -0.4353 C   0  0
   23.6253  -18.3403    0.3013 C   0  0
   25.0119  -19.0266    0.3589 C   0  0  2  0  0  0
   26.0516  -17.9525    0.6390 C   0  0
   25.3550  -19.7409   -0.9599 C   0  0
   27.1741  -18.4127    1.2352 O   0  0
   25.9046  -16.7711    0.3617 O   0  0
   26.4444  -20.7779   -0.7826 C   0  0
   27.7680  -20.4989   -1.1510 C   0  0
   28.7755  -21.4433   -0.9403 C   0  0
   28.4673  -22.6765   -0.3678 C   0  0
   27.1514  -22.9677   -0.0098 C   0  0
   26.1448  -22.0241   -0.2154 C   0  0
   18.8928  -21.5307   -0.1005 O   0  0
   18.8397  -22.8152    0.5264 C   0  0
   17.4449  -23.3920    0.3058 C   0  0
   17.2997  -24.7736    0.9179 C   0  0
   11.3985  -21.1132    0.1919 C   0  0
   10.2371  -20.6380   -0.4192 C   0  0
    8.9965  -21.1417   -0.2201 N   0  0
    8.8954  -22.1792    0.6348 C   0  0
    9.9755  -22.7366    1.2964 C   0  0
   11.2406  -22.1953    1.0674 C   0  0
   12.1018  -18.4929    0.4479 H   0  0
   13.6428  -22.3484   -0.7341 H   0  0
   15.7904  -21.3035   -1.3235 H   0  0
   14.2508  -17.4541   -0.1402 H   0  0
   17.5659  -20.2307   -0.3885 H   0  0
   18.9974  -19.1275   -2.3424 H   0  0
   18.9260  -17.7911   -1.1808 H   0  0
   21.2182  -22.2547    1.1649 H   0  0
   23.1869  -20.8994    1.3517 H   0  0
   21.2807  -17.7535   -0.8808 H   0  0
   23.6170  -17.6520   -0.5556 H   0  0
   23.4948  -17.7172    1.1968 H   0  0
   25.0240  -19.7162    1.2110 H   0  0
   24.4769  -20.2538   -1.3710 H   0  0
   25.6598  -19.0139   -1.7243 H   0  0
   27.2152  -19.3844    1.3384 H   0  0
   28.0263  -19.5403   -1.5993 H   0  0
   29.8025  -21.2195   -1.2252 H   0  0
   29.2536  -23.4121   -0.2089 H   0  0
   26.9073  -23.9335    0.4255 H   0  0
   25.1212  -22.2708    0.0601 H   0  0
   19.5856  -23.4801    0.0751 H   0  0
   19.0205  -22.7180    1.6037 H   0  0
   16.6986  -22.7165    0.7395 H   0  0
   17.2295  -23.4360   -0.7683 H   0  0
   16.2895  -25.1595    0.7494 H   0  0
   17.4758  -24.7443    1.9979 H   0  0
   18.0109  -25.4766    0.4725 H   0  0
   10.2737  -19.8106   -1.1243 H   0  0
    7.8917  -22.5630    0.7782 H   0  0
    9.8319  -23.5700    1.9761 H   0  0
   12.1008  -22.6137    1.5844 H   0  0
  1  2  2  0
  1 39  1  0
  2  3  1  0
  2 33  1  0
  3  4  2  0
  3 40  1  0
  4  5  1  0
  4 41  1  0
  5  6  2  0
  5  7  1  0
  6  1  1  0
  6 42  1  0
  7  8  1  0
  7  9  2  0
  8 10  1  0
  8 43  1  0
 10 11  1  0
 10 44  1  0
 10 45  1  0
 11 12  2  0
 12 13  1  0
 12 29  1  0
 13 14  2  0
 13 46  1  0
 14 15  1  0
 14 47  1  0
 15 16  2  0
 15 17  1  0
 16 11  1  0
 16 48  1  0
 17 18  1  0
 17 49  1  0
 17 50  1  0
 18 19  1  0
 18 20  1  0
 18 51  1  0
 19 21  1  0
 19 22  2  0
 20 23  1  0
 20 52  1  0
 20 53  1  0
 21 54  1  0
 23 24  2  0
 24 25  1  0
 24 55  1  0
 25 26  2  0
 25 56  1  0
 26 27  1  0
 26 57  1  0
 27 28  2  0
 27 58  1  0
 28 23  1  0
 28 59  1  0
 29 30  1  0
 30 31  1  0
 30 60  1  0
 30 61  1  0
 31 32  1  0
 31 62  1  0
 31 63  1  0
 32 64  1  0
 32 65  1  0
 32 66  1  0
 33 34  2  0
 34 35  1  0
 34 67  1  0
 35 36  2  0
 36 37  1  0
 36 68  1  0
 37 38  2  0
 37 69  1  0
 38 33  1  0
 38 70  1  0
M  END
> <Name>
CHEMBL2377528

> <Clean Energy>
16.7516

> <chembl_id>
CHEMBL2377528

> <chembl_pref_name>
None

> <efficacy>
1

> <Forcefield>
MMFF

> <ForcefieldBase>
MMFF

> <ForcefieldFFML>
<?xml version="1.0" encoding="UTF-8"?>
<!DOCTYPE ffml SYSTEM "Ffml.dtd">
<ffml version="1.0">
<forcefield name="MMFF" derivedFrom="MMFF" base="MMFF">
<atomTypes>
<atomType
name="C100"
element="C"
mass="12.011"
annotation=""/>
<atomType
name="N101"
element="N"
mass="14.007"
annotation=""/>
<atomType
name="O102"
element="O"
mass="16"
annotation=""/>
<atomType
name="H103"
element="H"
mass="1.008"
annotation=""/>
</atomTypes>
<parameters>
</parameters>
</forcefield>
</ffml>

> <Initial Potential Energy>
160.02709

> <Initial RMS Gradient>
30.9219

> <Minimization Criteria>
STEEPD> Minimization exiting with gradient tolerance ( 3.0000000) satisfied.

> <CHARMm Energy>
45.75902

> <Potential Energy>
45.75902

> <RMS Gradient>
0.05569

> <Bond Energy>
8.83475

> <Angle Energy>
13.31697

> <STRBend>
0.81409

> <Dihedral Energy>
1.1624

> <OOPLane>
0.0953

> <Van der Waals Energy>
83.05888

> <Electrostatic Energy>
-61.52337

> <Hydrogen Bond Energy>
0

> <Solvation Free Energy>
0

> <HasGasteigerCharges>
true

> <REMARK99>
REMARK  99  MacroMolecule created from Mol2 file
REMARK  99  CHEMBL2377528
REMARK  99  PROTEIN
REMARK  99  GASTEIGER
REMARK  99
REMARK  99

$$$$
CHEMBL2377527
  SciTegic05292516403D

 70 73  0  0  0  0            999 V2000
   -0.2093  -19.2715   -0.5809 C   0  0
   -0.2725  -20.1921    0.4809 C   0  0
    0.8948  -20.9319    0.7595 C   0  0
    2.0724  -20.7567    0.0161 C   0  0
    2.1078  -19.8315   -1.0322 C   0  0
    0.9592  -19.0939   -1.3297 C   0  0
    3.3020  -19.6534   -1.9037 C   0  0
    4.5229  -19.9341   -1.3420 N   0  0
    3.1493  -19.2738   -3.0606 O   0  0
    5.7349  -19.9295   -2.1337 C   0  0
    6.9301  -20.3783   -1.3222 C   0  0
    7.0797  -21.7180   -0.9251 C   0  0
    8.1875  -22.0887   -0.1603 C   0  0
    9.1468  -21.1401    0.2125 C   0  0
    9.0290  -19.8034   -0.1813 C   0  0
    7.9025  -19.4359   -0.9365 C   0  0
   10.0071  -18.7182    0.2291 C   0  0
   11.4238  -19.1519    0.6597 C   0  0  2  0  0  0
   12.1153  -17.9525    1.2823 C   0  0
   12.2574  -19.6565   -0.5291 C   0  0
   13.0137  -18.2800    2.2401 O   0  0
   11.9178  -16.7901    0.9609 O   0  0
   13.4276  -20.5035   -0.0782 C   0  0
   14.7069  -19.9472    0.0497 C   0  0
   15.7713  -20.7237    0.5114 C   0  0
   15.5677  -22.0621    0.8434 C   0  0
   14.3008  -22.6269    0.7099 C   0  0
   13.2358  -21.8522    0.2513 C   0  0
    6.0741  -22.5665   -1.3012 O   0  0
    6.2507  -23.9645   -1.0751 C   0  0
    5.0521  -24.6862   -1.6835 C   0  0
    5.1408  -26.1899   -1.4949 C   0  0
   -1.5325  -20.3808    1.2373 C   0  0
   -2.6787  -20.1504    0.5409 N   0  0
   -3.8564  -20.3221    1.1776 C   0  0
   -3.9623  -20.7111    2.4987 C   0  0
   -2.7952  -20.9339    3.2137 C   0  0
   -1.5661  -20.7666    2.5789 C   0  0
   -1.0930  -18.6898   -0.8452 H   0  0
    0.8821  -21.6922    1.5381 H   0  0
    2.9351  -21.3790    0.2406 H   0  0
    0.9582  -18.3865   -2.1573 H   0  0
    4.6136  -20.1842   -0.3689 H   0  0
    5.5970  -20.5817   -3.0045 H   0  0
    5.8787  -18.9140   -2.5213 H   0  0
    8.3135  -23.1076    0.1890 H   0  0
    9.9758  -21.4783    0.8273 H   0  0
    7.7547  -18.3927   -1.2163 H   0  0
   10.0984  -18.0051   -0.6023 H   0  0
    9.5351  -18.1706    1.0569 H   0  0
   11.3305  -19.9111    1.4453 H   0  0
   11.6482  -20.2642   -1.2095 H   0  0
   12.6244  -18.8155   -1.1321 H   0  0
   13.1880  -19.2387    2.3268 H   0  0
   14.8852  -18.9030   -0.2038 H   0  0
   16.7634  -20.2861    0.6091 H   0  0
   16.4009  -22.6659    1.1971 H   0  0
   14.1420  -23.6738    0.9553 H   0  0
   12.2558  -22.3119    0.1412 H   0  0
    7.1730  -24.3126   -1.5555 H   0  0
    6.2889  -24.1662    0.0018 H   0  0
    4.1273  -24.3082   -1.2308 H   0  0
    4.9833  -24.4482   -2.7518 H   0  0
    4.2676  -26.6798   -1.9371 H   0  0
    5.1747  -26.4507   -0.4324 H   0  0
    6.0369  -26.5935   -1.9769 H   0  0
   -4.7418  -20.1341    0.5768 H   0  0
   -4.9332  -20.8337    2.9603 H   0  0
   -2.8429  -21.2308    4.2582 H   0  0
   -0.6539  -20.9245    3.1429 H   0  0
  1  2  2  0
  1 39  1  0
  2  3  1  0
  2 33  1  0
  3  4  2  0
  3 40  1  0
  4  5  1  0
  4 41  1  0
  5  6  2  0
  5  7  1  0
  6  1  1  0
  6 42  1  0
  7  8  1  0
  7  9  2  0
  8 10  1  0
  8 43  1  0
 10 11  1  0
 10 44  1  0
 10 45  1  0
 11 12  2  0
 12 13  1  0
 12 29  1  0
 13 14  2  0
 13 46  1  0
 14 15  1  0
 14 47  1  0
 15 16  2  0
 15 17  1  0
 16 11  1  0
 16 48  1  0
 17 18  1  0
 17 49  1  0
 17 50  1  0
 18 19  1  0
 18 20  1  0
 18 51  1  0
 19 21  1  0
 19 22  2  0
 20 23  1  0
 20 52  1  0
 20 53  1  0
 21 54  1  0
 23 24  2  0
 24 25  1  0
 24 55  1  0
 25 26  2  0
 25 56  1  0
 26 27  1  0
 26 57  1  0
 27 28  2  0
 27 58  1  0
 28 23  1  0
 28 59  1  0
 29 30  1  0
 30 31  1  0
 30 60  1  0
 30 61  1  0
 31 32  1  0
 31 62  1  0
 31 63  1  0
 32 64  1  0
 32 65  1  0
 32 66  1  0
 33 34  2  0
 34 35  1  0
 35 36  2  0
 35 67  1  0
 36 37  1  0
 36 68  1  0
 37 38  2  0
 37 69  1  0
 38 33  1  0
 38 70  1  0
M  END
> <Name>
CHEMBL2377527

> <Clean Energy>
16.7668

> <chembl_id>
CHEMBL2377527

> <chembl_pref_name>
None

> <efficacy>
1.13

> <Forcefield>
MMFF

> <ForcefieldBase>
MMFF

> <ForcefieldFFML>
<?xml version="1.0" encoding="UTF-8"?>
<!DOCTYPE ffml SYSTEM "Ffml.dtd">
<ffml version="1.0">
<forcefield name="MMFF" derivedFrom="MMFF" base="MMFF">
<atomTypes>
<atomType
name="C100"
element="C"
mass="12.011"
annotation=""/>
<atomType
name="N101"
element="N"
mass="14.007"
annotation=""/>
<atomType
name="O102"
element="O"
mass="16"
annotation=""/>
<atomType
name="H103"
element="H"
mass="1.008"
annotation=""/>
</atomTypes>
<parameters>
</parameters>
</forcefield>
</ffml>

> <Initial Potential Energy>
149.61596

> <Initial RMS Gradient>
30.6408

> <Minimization Criteria>
STEEPD> Minimization exiting with gradient tolerance ( 3.0000000) satisfied.

> <CHARMm Energy>
40.27653

> <Potential Energy>
40.27653

> <RMS Gradient>
0.01246

> <Bond Energy>
8.85231

> <Angle Energy>
13.88449

> <STRBend>
0.60744

> <Dihedral Energy>
-2.79519

> <OOPLane>
0.09238

> <Van der Waals Energy>
82.86018

> <Electrostatic Energy>
-63.2251

> <Hydrogen Bond Energy>
0

> <Solvation Free Energy>
0

> <HasGasteigerCharges>
true

> <REMARK99>
REMARK  99  MacroMolecule created from Mol2 file
REMARK  99  CHEMBL2377527
REMARK  99  PROTEIN
REMARK  99  GASTEIGER
REMARK  99
REMARK  99

$$$$
CHEMBL5092961
  SciTegic05292516403D

 55 57  0  0  0  0            999 V2000
   46.5174  -21.7916    0.8865 C   0  0
   46.4065  -21.4039   -0.5998 C   0  0
   47.2818  -22.3523   -1.4358 C   0  0
   42.2855  -20.9595    1.1380 C   0  0
   41.7532  -22.2532    1.2155 C   0  0
   42.3637  -23.2807    0.4880 C   0  0
   43.4927  -23.0314   -0.3075 C   0  0
   44.0237  -21.7290   -0.3530 C   0  0
   43.3925  -20.6743    0.3270 C   0  0
   43.8274  -19.2439    0.1919 C   0  0
   44.1046  -24.1637   -1.0829 C   0  0
   45.0867  -21.4962   -1.1818 O   0  0
   46.9423  -19.9727   -0.8443 C   0  0
   48.1596  -19.7134   -0.3065 O   0  0
   46.3715  -19.1080   -1.4961 O   0  0
   40.4689  -22.4996    1.9754 C   0  0
   39.3438  -21.9420    1.2596 N   0  0
   38.8513  -20.6396    1.4190 C   0  0
   37.9891  -20.4457    0.3539 N   0  0
   38.0236  -21.6115   -0.3316 C   0  0
   38.8010  -22.5323    0.1459 N   0  0
   39.1820  -19.8675    2.3078 O   0  0
   37.2621  -19.2770    0.0279 C   0  0
   37.1986  -18.1826    0.9023 C   0  0
   36.4580  -17.0328    0.5888 C   0  0
   35.7632  -16.9480   -0.6136 C   0  0
   35.8457  -18.0149   -1.5056 C   0  0
   36.5751  -19.1678   -1.1890 C   0  0
   34.9722  -15.9083   -1.0213 O   0  0
   34.9300  -14.7714   -0.1683 C   0  0
   46.0781  -22.7753    1.0825 H   0  0
   46.0084  -21.0662    1.5295 H   0  0
   47.5586  -21.8358    1.2230 H   0  0
   48.3334  -22.3226   -1.1320 H   0  0
   47.2327  -22.0911   -2.4998 H   0  0
   46.9343  -23.3868   -1.3506 H   0  0
   41.7948  -20.1489    1.6765 H   0  0
   41.9253  -24.2766    0.5071 H   0  0
   43.0899  -18.5588    0.6249 H   0  0
   43.9196  -18.9738   -0.8638 H   0  0
   44.7722  -19.0779    0.7150 H   0  0
   44.9649  -24.5666   -0.5406 H   0  0
   44.4214  -23.8347   -2.0776 H   0  0
   43.3838  -24.9747   -1.2333 H   0  0
   48.6356  -20.4498    0.1202 H   0  0
   40.2909  -23.5703    2.1238 H   0  0
   40.5393  -22.0331    2.9647 H   0  0
   37.4183  -21.7429   -1.2342 H   0  0
   37.7099  -18.1911    1.8613 H   0  0
   36.4328  -16.2300    1.3195 H   0  0
   35.3333  -17.9543   -2.4625 H   0  0
   36.5910  -19.9547   -1.9359 H   0  0
   34.2933  -14.0198   -0.6451 H   0  0
   35.9253  -14.3322   -0.0428 H   0  0
   34.4816  -15.0209    0.7990 H   0  0
  1 31  1  0
  1 32  1  0
  1 33  1  0
  2  1  1  0
  2 13  1  0
  3  2  1  0
  3 34  1  0
  3 35  1  0
  3 36  1  0
  4  5  2  0
  4 37  1  0
  5  6  1  0
  5 16  1  0
  6  7  2  0
  6 38  1  0
  7  8  1  0
  7 11  1  0
  8  9  2  0
  8 12  1  0
  9  4  1  0
  9 10  1  0
 10 39  1  0
 10 40  1  0
 10 41  1  0
 11 42  1  0
 11 43  1  0
 11 44  1  0
 12  2  1  0
 13 14  1  0
 13 15  2  0
 14 45  1  0
 16 17  1  0
 16 46  1  0
 16 47  1  0
 17 18  1  0
 18 19  1  0
 18 22  2  0
 19 20  1  0
 19 23  1  0
 20 21  2  0
 20 48  1  0
 21 17  1  0
 23 24  2  0
 24 25  1  0
 24 49  1  0
 25 26  2  0
 25 50  1  0
 26 27  1  0
 26 29  1  0
 27 28  2  0
 27 51  1  0
 28 23  1  0
 28 52  1  0
 29 30  1  0
 30 53  1  0
 30 54  1  0
 30 55  1  0
M  END
> <Name>
CHEMBL5092961

> <Clean Energy>
59.896999

> <chembl_id>
CHEMBL5092961

> <chembl_pref_name>
None

> <efficacy>
1.14

> <Forcefield>
MMFF

> <ForcefieldBase>
MMFF

> <ForcefieldFFML>
<?xml version="1.0" encoding="UTF-8"?>
<!DOCTYPE ffml SYSTEM "Ffml.dtd">
<ffml version="1.0">
<forcefield name="MMFF" derivedFrom="MMFF" base="MMFF">
<atomTypes>
<atomType
name="C100"
element="C"
mass="12.011"
annotation=""/>
<atomType
name="O101"
element="O"
mass="16"
annotation=""/>
<atomType
name="N102"
element="N"
mass="14.007"
annotation=""/>
<atomType
name="H103"
element="H"
mass="1.008"
annotation=""/>
</atomTypes>
<parameters>
</parameters>
</forcefield>
</ffml>

> <Initial Potential Energy>
222.48515

> <Initial RMS Gradient>
30.33479

> <Minimization Criteria>
CONJUG> Minimization exiting with gradient tolerance ( 0.0100000) satisfied.

> <CHARMm Energy>
96.33757

> <Potential Energy>
96.33757

> <RMS Gradient>
0.00926

> <Bond Energy>
6.56807

> <Angle Energy>
34.86221

> <STRBend>
-0.33474

> <Dihedral Energy>
9.06774

> <OOPLane>
0.35871

> <Van der Waals Energy>
58.60862

> <Electrostatic Energy>
-12.79305

> <Hydrogen Bond Energy>
0

> <Solvation Free Energy>
0

> <HasGasteigerCharges>
true

> <REMARK99>
REMARK  99  MacroMolecule created from Mol2 file
REMARK  99  CHEMBL5092961
REMARK  99  PROTEIN
REMARK  99  GASTEIGER
REMARK  99
REMARK  99

$$$$
CHEMBL490425
  SciTegic05292516403D

 48 49  0  0  0  0            999 V2000
    9.2825   -1.2659    0.6866 C   0  0
    9.5002   -2.4485   -0.0206 C   0  0
   10.7861   -2.7917   -0.4564 C   0  0
   11.8508   -1.9231   -0.1776 C   0  0
   11.6369   -0.7374    0.5412 C   0  0
   10.3464   -0.4094    0.9666 C   0  0
   12.7918    0.1694    0.8047 C   0  0
   12.7489    1.0549    2.0355 C   0  0
   13.7828    0.1729   -0.0392 N   0  0
   14.7545    1.1137    0.3289 O   0  0
   15.7357    1.1988   -0.7028 C   0  0
   16.6131    2.3876   -0.4095 C   0  0
   17.8931    2.2169    0.1359 C   0  0
   18.6876    3.3281    0.4274 C   0  0
   18.2014    4.6114    0.1813 C   0  0
   16.9259    4.7941   -0.3493 C   0  0
   16.1337    3.6854   -0.6434 C   0  0
   11.0213   -4.0837   -1.2053 C   0  0
   11.7569   -5.1548   -0.3832 C   0  0  1  0  0  0
   10.7738   -5.8422    0.5847 C   0  0
   12.3250   -6.0703   -1.3310 O   0  0
   13.3329   -6.9051   -0.7626 C   0  0
   13.8339   -7.8459   -1.8406 C   0  0
   10.4400   -5.0954    1.6658 O   0  0
   10.3324   -6.9746    0.4441 O   0  0
   19.2779    6.1148    0.5758 Br  0  0
    8.2761   -1.0063    1.0087 H   0  0
    8.6524   -3.0984   -0.2333 H   0  0
   12.8541   -2.1619   -0.5297 H   0  0
   10.1436    0.5215    1.4892 H   0  0
   12.5059    2.0780    1.7349 H   0  0
   13.7206    1.0477    2.5385 H   0  0
   12.0138    0.7069    2.7651 H   0  0
   16.3198    0.2716   -0.7262 H   0  0
   15.2545    1.3270   -1.6805 H   0  0
   18.2749    1.2188    0.3417 H   0  0
   19.6819    3.1893    0.8451 H   0  0
   16.5458    5.7953   -0.5382 H   0  0
   15.1348    3.8364   -1.0483 H   0  0
   10.0679   -4.4846   -1.5749 H   0  0
   11.5968   -3.8475   -2.1109 H   0  0
   12.5731   -4.7143    0.2028 H   0  0
   14.1601   -6.2857   -0.3990 H   0  0
   12.9266   -7.4843    0.0724 H   0  0
   14.6163   -8.5035   -1.4517 H   0  0
   14.2354   -7.2819   -2.6890 H   0  0
   13.0142   -8.4612   -2.2260 H   0  0
   10.8399   -4.2033    1.6845 H   0  0
  1  2  2  0
  1 27  1  0
  2  3  1  0
  2 28  1  0
  3  4  2  0
  3 18  1  0
  4  5  1  0
  4 29  1  0
  5  6  2  0
  5  7  1  0
  6  1  1  0
  6 30  1  0
  7  8  1  0
  7  9  2  0
  8 31  1  0
  8 32  1  0
  8 33  1  0
  9 10  1  0
 10 11  1  0
 11 12  1  0
 11 34  1  0
 11 35  1  0
 12 13  2  0
 13 14  1  0
 13 36  1  0
 14 15  2  0
 14 37  1  0
 15 16  1  0
 15 26  1  0
 16 17  2  0
 16 38  1  0
 17 12  1  0
 17 39  1  0
 18 19  1  0
 18 40  1  0
 18 41  1  0
 19 20  1  0
 19 21  1  0
 19 42  1  0
 20 24  1  0
 20 25  2  0
 21 22  1  0
 22 23  1  0
 22 43  1  0
 22 44  1  0
 23 45  1  0
 23 46  1  0
 23 47  1  0
 24 48  1  0
M  END
> <Name>
CHEMBL490425

> <Clean Energy>
30.6063

> <chembl_id>
CHEMBL490425

> <chembl_pref_name>
None

> <efficacy>
1.6

> <Forcefield>
MMFF

> <ForcefieldBase>
MMFF

> <ForcefieldFFML>
<?xml version="1.0" encoding="UTF-8"?>
<!DOCTYPE ffml SYSTEM "Ffml.dtd">
<ffml version="1.0">
<forcefield name="MMFF" derivedFrom="MMFF" base="MMFF">
<atomTypes>
<atomType
name="C100"
element="C"
mass="12.011"
annotation=""/>
<atomType
name="N101"
element="N"
mass="14.007"
annotation=""/>
<atomType
name="O102"
element="O"
mass="16"
annotation=""/>
<atomType
name="Br103"
element="Br"
mass="79.904"
annotation=""/>
<atomType
name="H104"
element="H"
mass="1.008"
annotation=""/>
</atomTypes>
<parameters>
</parameters>
</forcefield>
</ffml>

> <Initial Potential Energy>
198.50178

> <Initial RMS Gradient>
26.5265

> <Minimization Criteria>
CONJUG> Minimization exiting with gradient tolerance ( 0.0100000) satisfied.

> <CHARMm Energy>
103.62236

> <Potential Energy>
103.62236

> <RMS Gradient>
0.00862

> <Bond Energy>
4.91563

> <Angle Energy>
6.76876

> <STRBend>
1.13472

> <Dihedral Energy>
1.40644

> <OOPLane>
0.03794

> <Van der Waals Energy>
47.03907

> <Electrostatic Energy>
42.3198

> <Hydrogen Bond Energy>
0

> <Solvation Free Energy>
0

> <HasGasteigerCharges>
true

> <REMARK99>
REMARK  99  MacroMolecule created from Mol2 file
REMARK  99  CHEMBL490425
REMARK  99  PROTEIN
REMARK  99  GASTEIGER
REMARK  99
REMARK  99

$$$$
CHEMBL3263236
  SciTegic05292516403D

 48 50  0  0  0  0            999 V2000
   24.5688  -15.7135   -0.7582 C   0  0
   24.4064  -17.0288   -0.3344 C   0  0
   25.5200  -17.8089   -0.0029 C   0  0
   26.8157  -17.2868   -0.0847 C   0  0
   26.9619  -15.9426   -0.4776 C   0  0
   25.8471  -15.1684   -0.8298 C   0  0
   28.2688  -15.2456   -0.4806 C   0  0
   29.0086  -15.3825    0.6762 N   0  0
   28.6142  -14.5658   -1.4379 O   0  0
   30.2313  -14.6371    0.8769 C   0  0
   31.4234  -15.3312    0.2336 C   0  0
   32.6692  -14.4502    0.2825 C   0  0
   33.8552  -15.1553   -0.3270 C   0  0
   34.9011  -14.3274   -0.5354 O   0  0
   33.8937  -16.3468   -0.5914 O   0  0
   27.9659  -18.0946    0.1182 N   0  0
   27.9940  -19.3586    0.6815 C   0  0
   29.2394  -20.1614    0.4845 C   0  0
   27.0749  -19.8637    1.3177 O   0  0
   29.1365  -21.5542    0.6184 C   0  0
   30.2433  -22.3757    0.3956 C   0  0
   30.4769  -19.5977    0.1513 C   0  0
   31.5956  -20.4145   -0.0839 C   0  0
   31.4759  -21.8191    0.0336 C   0  0
   32.5923  -22.6296   -0.2179 C   0  0
   33.8142  -22.0609   -0.5796 C   0  0
   33.9333  -20.6787   -0.6907 C   0  0
   32.8323  -19.8600   -0.4432 C   0  0
   23.7054  -15.1144   -1.0307 H   0  0
   23.4126  -17.4667   -0.2788 H   0  0
   25.3383  -18.8429    0.2765 H   0  0
   25.9782  -14.1358   -1.1469 H   0  0
   28.6217  -15.9151    1.4491 H   0  0
   30.0989  -13.6311    0.4627 H   0  0
   30.3817  -14.5405    1.9573 H   0  0
   31.6091  -16.2830    0.7471 H   0  0
   31.1993  -15.5874   -0.8099 H   0  0
   32.4832  -13.5283   -0.2799 H   0  0
   32.9174  -14.1958    1.3184 H   0  0
   34.7339  -13.3928   -0.3005 H   0  0
   28.8286  -17.7031   -0.2367 H   0  0
   28.1845  -22.0127    0.8837 H   0  0
   30.1315  -23.4541    0.4981 H   0  0
   30.6065  -18.5241    0.0722 H   0  0
   32.5154  -23.7126   -0.1387 H   0  0
   34.6720  -22.6956   -0.7781 H   0  0
   34.8815  -20.2297   -0.9742 H   0  0
   32.9542  -18.7827   -0.5430 H   0  0
  1  2  2  0
  1 29  1  0
  2  3  1  0
  2 30  1  0
  3  4  2  0
  3 31  1  0
  4  5  1  0
  4 16  1  0
  5  6  2  0
  5  7  1  0
  6  1  1  0
  6 32  1  0
  7  8  1  0
  7  9  2  0
  8 10  1  0
  8 33  1  0
 10 11  1  0
 10 34  1  0
 10 35  1  0
 11 12  1  0
 11 36  1  0
 11 37  1  0
 12 13  1  0
 12 38  1  0
 12 39  1  0
 13 14  1  0
 13 15  2  0
 14 40  1  0
 16 17  1  0
 16 41  1  0
 17 18  1  0
 17 19  2  0
 18 20  2  0
 20 21  1  0
 20 42  1  0
 21 24  2  0
 21 43  1  0
 22 18  1  0
 22 44  1  0
 23 22  2  0
 23 24  1  0
 24 25  1  0
 25 26  2  0
 25 45  1  0
 26 27  1  0
 26 46  1  0
 27 28  2  0
 27 47  1  0
 28 23  1  0
 28 48  1  0
M  END
> <Name>
CHEMBL3263236

> <Clean Energy>
-3.1398

> <chembl_id>
CHEMBL3263236

> <chembl_pref_name>
None

> <efficacy>
4.102564103

> <Forcefield>
MMFF

> <ForcefieldBase>
MMFF

> <ForcefieldFFML>
<?xml version="1.0" encoding="UTF-8"?>
<!DOCTYPE ffml SYSTEM "Ffml.dtd">
<ffml version="1.0">
<forcefield name="MMFF" derivedFrom="MMFF" base="MMFF">
<atomTypes>
<atomType
name="C100"
element="C"
mass="12.011"
annotation=""/>
<atomType
name="N101"
element="N"
mass="14.007"
annotation=""/>
<atomType
name="O102"
element="O"
mass="16"
annotation=""/>
<atomType
name="H103"
element="H"
mass="1.008"
annotation=""/>
</atomTypes>
<parameters>
</parameters>
</forcefield>
</ffml>

> <Initial Potential Energy>
220.40136

> <Initial RMS Gradient>
103.77648

> <Minimization Criteria>
CONJUG> Minimization exiting with gradient tolerance ( 0.0100000) satisfied.

> <CHARMm Energy>
22.5796

> <Potential Energy>
22.5796

> <RMS Gradient>
0.00941

> <Bond Energy>
5.90152

> <Angle Energy>
7.17319

> <STRBend>
0.91841

> <Dihedral Energy>
1.76835

> <OOPLane>
0.1727

> <Van der Waals Energy>
59.83292

> <Electrostatic Energy>
-53.18749

> <Hydrogen Bond Energy>
0

> <Solvation Free Energy>
0

> <HasGasteigerCharges>
true

> <REMARK99>
REMARK  99  MacroMolecule created from Mol2 file
REMARK  99  CHEMBL3263236
REMARK  99  PROTEIN
REMARK  99  GASTEIGER
REMARK  99
REMARK  99

$$$$
CHEMBL221123
  SciTegic05292516403D

 54 57  0  0  0  0            999 V2000
   10.9527   -2.3611   -0.6175 C   0  0  2  0  0  0
   10.4360   -3.1255   -1.8345 C   0  0
   10.1135   -4.4933   -1.2888 C   0  0
   11.1304   -4.6653   -0.1852 C   0  0
   11.4884   -3.3570    0.2992 O   0  0
    6.3012   -2.3314   -0.3358 C   0  0
    6.1221   -3.1665    0.7577 C   0  0
    7.1190   -3.4412    1.6298 N   0  0
    8.3199   -2.8599    1.4173 C   0  0
    8.5899   -2.0119    0.3521 C   0  0
    7.5462   -1.7408   -0.5324 C   0  0
    4.9523   -3.8127    1.0497 O   0  0
    3.7601   -3.2423    0.5075 C   0  0
    2.5687   -3.8321    1.2559 C   0  0
    1.2706   -3.2188    0.8669 C   0  0
    0.8247   -1.9274    1.0536 C   0  0
   -0.4442   -1.8464    0.5607 O   0  0
   -0.7303   -3.1147    0.1191 C   0  0
    0.2775   -3.9597    0.2582 N   0  0
   -2.0756   -3.3372   -0.4116 C   0  0
   -3.0062   -2.2908   -0.5260 C   0  0
   -4.2928   -2.5251   -1.0192 C   0  0
   -4.6650   -3.8103   -1.4053 C   0  0
   -3.7585   -4.8615   -1.3011 C   0  0
   -2.4705   -4.6248   -0.8084 C   0  0
    1.3911   -0.7002    1.6405 C   0  0
    9.9614   -1.4400    0.1233 C   0  0
   12.1228   -1.4705   -1.0561 C   0  0
   13.2867   -1.8009   -0.4485 O   0  0
   12.0168   -0.5528   -1.8565 O   0  0
    9.5895   -2.6479   -2.3352 H   0  0
   11.2253   -3.2298   -2.5909 H   0  0
    9.1001   -4.5173   -0.8777 H   0  0
   10.1745   -5.2837   -2.0422 H   0  0
   10.7517   -5.2691    0.6443 H   0  0
   12.0448   -5.1338   -0.5641 H   0  0
    5.5129   -2.1353   -1.0510 H   0  0
    9.0871   -3.1179    2.1442 H   0  0
    7.6956   -1.0871   -1.3891 H   0  0
    3.7695   -2.1522    0.6305 H   0  0
    3.6844   -3.4852   -0.5595 H   0  0
    2.5376   -4.9162    1.0904 H   0  0
    2.7167   -3.7073    2.3364 H   0  0
   -2.7325   -1.2811   -0.2272 H   0  0
   -5.0033   -1.7062   -1.0988 H   0  0
   -5.6656   -3.9945   -1.7863 H   0  0
   -4.0520   -5.8647   -1.6003 H   0  0
   -1.7733   -5.4568   -0.7283 H   0  0
    0.6132   -0.1034    2.1266 H   0  0
    1.8582   -0.0889    0.8624 H   0  0
    2.1497   -0.9391    2.3917 H   0  0
    9.8420   -0.4931   -0.4211 H   0  0
   10.3814   -1.1602    1.0996 H   0  0
   13.1244   -2.5599    0.1591 H   0  0
  1  2  1  0
  1  5  1  0
  1 28  1  0
  2  3  1  0
  2 31  1  0
  2 32  1  0
  3  4  1  0
  3 33  1  0
  3 34  1  0
  4  5  1  0
  4 35  1  0
  4 36  1  0
  6  7  2  0
  6 37  1  0
  7  8  1  0
  7 12  1  0
  8  9  2  0
  9 10  1  0
  9 38  1  0
 10 11  2  0
 10 27  1  0
 11  6  1  0
 11 39  1  0
 12 13  1  0
 13 14  1  0
 13 40  1  0
 13 41  1  0
 14 15  1  0
 14 42  1  0
 14 43  1  0
 15 16  2  0
 16 17  1  0
 16 26  1  0
 17 18  1  0
 18 19  2  0
 18 20  1  0
 19 15  1  0
 20 21  2  0
 21 22  1  0
 21 44  1  0
 22 23  2  0
 22 45  1  0
 23 24  1  0
 23 46  1  0
 24 25  2  0
 24 47  1  0
 25 20  1  0
 25 48  1  0
 26 49  1  0
 26 50  1  0
 26 51  1  0
 27  1  1  0
 27 52  1  0
 27 53  1  0
 28 29  1  0
 28 30  2  0
 29 54  1  0
M  END
> <Name>
CHEMBL221123

> <Clean Energy>
76.032799

> <chembl_id>
CHEMBL221123

> <chembl_pref_name>
None

> <efficacy>
1.010869565

> <Forcefield>
MMFF

> <ForcefieldBase>
MMFF

> <ForcefieldFFML>
<?xml version="1.0" encoding="UTF-8"?>
<!DOCTYPE ffml SYSTEM "Ffml.dtd">
<ffml version="1.0">
<forcefield name="MMFF" derivedFrom="MMFF" base="MMFF">
<atomTypes>
<atomType
name="C100"
element="C"
mass="12.011"
annotation=""/>
<atomType
name="O101"
element="O"
mass="16"
annotation=""/>
<atomType
name="N102"
element="N"
mass="14.007"
annotation=""/>
<atomType
name="H103"
element="H"
mass="1.008"
annotation=""/>
</atomTypes>
<parameters>
</parameters>
</forcefield>
</ffml>

> <Initial Potential Energy>
167.04078

> <Initial RMS Gradient>
27.7994

> <Minimization Criteria>
STEEPD> Minimization exiting with gradient tolerance ( 3.0000000) satisfied.

> <CHARMm Energy>
70.76641

> <Potential Energy>
70.76641

> <RMS Gradient>
0.07822

> <Bond Energy>
4.65665

> <Angle Energy>
12.69537

> <STRBend>
0.79079

> <Dihedral Energy>
4.75918

> <OOPLane>
0.02878

> <Van der Waals Energy>
47.32745

> <Electrostatic Energy>
0.50819

> <Hydrogen Bond Energy>
0

> <Solvation Free Energy>
0

> <HasGasteigerCharges>
true

> <REMARK99>
REMARK  99  MacroMolecule created from Mol2 file
REMARK  99  CHEMBL221123
REMARK  99  PROTEIN
REMARK  99  GASTEIGER
REMARK  99
REMARK  99

$$$$
CHEMBL2377524
  SciTegic05292516403D

 71 74  0  0  0  0            999 V2000
    1.3175  -13.2622    0.1248 C   0  0
    1.0912  -14.6427   -0.0081 C   0  0
    2.1377  -15.4494   -0.4848 C   0  0
    3.3693  -14.8905   -0.8375 C   0  0
    3.5727  -13.5136   -0.7033 C   0  0
    2.5452  -12.6984   -0.2260 C   0  0
    4.8394  -12.8768   -1.1319 C   0  0
    5.9789  -13.5877   -0.8614 N   0  0
    4.7964  -11.7870   -1.6903 O   0  0
    7.2782  -13.1869   -1.3444 C   0  0
    8.4464  -13.7832   -0.5740 C   0  0
    8.4566  -15.0870   -0.0400 C   0  0
    9.5939  -15.5492    0.6327 C   0  0
   10.7296  -14.7450    0.7663 C   0  0
   10.7681  -13.4698    0.2026 C   0  0
    9.6152  -12.9992   -0.4504 C   0  0
   11.9686  -12.5522    0.3282 C   0  0
   13.3695  -13.2086    0.3913 C   0  0  2  0  0  0
   14.3828  -12.1182    0.7029 C   0  0
   13.7446  -13.8936   -0.9345 C   0  0
   15.5060  -12.5646    1.3079 O   0  0
   14.2162  -10.9355    0.4423 O   0  0
   14.8524  -14.9115   -0.7590 C   0  0
   16.1757  -14.5986   -1.1003 C   0  0
   17.1994  -15.5257   -0.8897 C   0  0
   16.9085  -16.7750   -0.3444 C   0  0
   15.5935  -17.0999   -0.0140 C   0  0
   14.5703  -16.1741   -0.2198 C   0  0
    7.3215  -15.8366   -0.2171 O   0  0
    7.2526  -17.1121    0.4244 C   0  0
    5.8579  -17.6837    0.1919 C   0  0
    5.6995  -19.0622    0.8084 C   0  0
   -0.2291  -15.2149    0.2844 C   0  0
   -1.3647  -14.7449   -0.3924 C   0  0
   -2.6136  -15.2906   -0.1284 C   0  0
   -2.7671  -16.3053    0.8059 C   0  0
   -1.6552  -16.7866    1.4909 C   0  0
   -0.3933  -16.2447    1.2284 C   0  0
   -3.6824  -14.8314   -0.7906 F   0  0
    0.5249  -12.6093    0.4881 H   0  0
    1.9768  -16.5170   -0.6279 H   0  0
    4.1390  -15.5283   -1.2626 H   0  0
    2.6899  -11.6229   -0.1425 H   0  0
    5.9446  -14.4737   -0.3725 H   0  0
    7.3504  -13.5005   -2.3920 H   0  0
    7.3265  -12.0921   -1.3200 H   0  0
    9.6328  -16.5408    1.0716 H   0  0
   11.5759  -15.1438    1.3183 H   0  0
    9.6216  -11.9933   -0.8726 H   0  0
   11.9560  -11.8477   -0.5152 H   0  0
   11.8122  -11.9499    1.2337 H   0  0
   13.3854  -13.9118    1.2322 H   0  0
   12.8831  -14.4166   -1.3675 H   0  0
   14.0454  -13.1481   -1.6823 H   0  0
   15.5636  -13.5370    1.3958 H   0  0
   16.4208  -13.6264   -1.5263 H   0  0
   18.2256  -15.2757   -1.1539 H   0  0
   17.7071  -17.4972   -0.1861 H   0  0
   15.3620  -18.0783    0.3993 H   0  0
   13.5477  -16.4471    0.0342 H   0  0
    8.0016  -17.7847   -0.0095 H   0  0
    7.4206  -17.0052    1.5027 H   0  0
    5.1106  -17.0034    0.6165 H   0  0
    5.6523  -17.7301   -0.8841 H   0  0
    4.6909  -19.4459    0.6247 H   0  0
    5.8582  -19.0276    1.8912 H   0  0
    6.4160  -19.7690    0.3777 H   0  0
   -1.2856  -13.9602   -1.1398 H   0  0
   -3.7526  -16.7136    0.9933 H   0  0
   -1.7732  -17.5791    2.2267 H   0  0
    0.4686  -16.6244    1.7745 H   0  0
  1  2  2  0
  1 40  1  0
  2  3  1  0
  2 33  1  0
  3  4  2  0
  3 41  1  0
  4  5  1  0
  4 42  1  0
  5  6  2  0
  5  7  1  0
  6  1  1  0
  6 43  1  0
  7  8  1  0
  7  9  2  0
  8 10  1  0
  8 44  1  0
 10 11  1  0
 10 45  1  0
 10 46  1  0
 11 12  2  0
 12 13  1  0
 12 29  1  0
 13 14  2  0
 13 47  1  0
 14 15  1  0
 14 48  1  0
 15 16  2  0
 15 17  1  0
 16 11  1  0
 16 49  1  0
 17 18  1  0
 17 50  1  0
 17 51  1  0
 18 19  1  0
 18 20  1  0
 18 52  1  0
 19 21  1  0
 19 22  2  0
 20 23  1  0
 20 53  1  0
 20 54  1  0
 21 55  1  0
 23 24  2  0
 24 25  1  0
 24 56  1  0
 25 26  2  0
 25 57  1  0
 26 27  1  0
 26 58  1  0
 27 28  2  0
 27 59  1  0
 28 23  1  0
 28 60  1  0
 29 30  1  0
 30 31  1  0
 30 61  1  0
 30 62  1  0
 31 32  1  0
 31 63  1  0
 31 64  1  0
 32 65  1  0
 32 66  1  0
 32 67  1  0
 33 34  2  0
 34 35  1  0
 34 68  1  0
 35 36  2  0
 35 39  1  0
 36 37  1  0
 36 69  1  0
 37 38  2  0
 37 70  1  0
 38 33  1  0
 38 71  1  0
M  END
> <Name>
CHEMBL2377524

> <Clean Energy>
16.616199

> <chembl_id>
CHEMBL2377524

> <chembl_pref_name>
None

> <efficacy>
0.997

> <Forcefield>
MMFF

> <ForcefieldBase>
MMFF

> <ForcefieldFFML>
<?xml version="1.0" encoding="UTF-8"?>
<!DOCTYPE ffml SYSTEM "Ffml.dtd">
<ffml version="1.0">
<forcefield name="MMFF" derivedFrom="MMFF" base="MMFF">
<atomTypes>
<atomType
name="C100"
element="C"
mass="12.011"
annotation=""/>
<atomType
name="N101"
element="N"
mass="14.007"
annotation=""/>
<atomType
name="O102"
element="O"
mass="16"
annotation=""/>
<atomType
name="F103"
element="F"
mass="18.998"
annotation=""/>
<atomType
name="H104"
element="H"
mass="1.008"
annotation=""/>
</atomTypes>
<parameters>
</parameters>
</forcefield>
</ffml>

> <Initial Potential Energy>
149.14144

> <Initial RMS Gradient>
30.03286

> <Minimization Criteria>
STEEPD> Minimization exiting with gradient tolerance ( 3.0000000) satisfied.

> <CHARMm Energy>
36.58172

> <Potential Energy>
36.58172

> <RMS Gradient>
0.08376

> <Bond Energy>
8.95954

> <Angle Energy>
13.07423

> <STRBend>
0.32469

> <Dihedral Energy>
1.78639

> <OOPLane>
0.11583

> <Van der Waals Energy>
82.79672

> <Electrostatic Energy>
-70.47567

> <Hydrogen Bond Energy>
0

> <Solvation Free Energy>
0

> <HasGasteigerCharges>
true

> <REMARK99>
REMARK  99  MacroMolecule created from Mol2 file
REMARK  99  CHEMBL2377524
REMARK  99  PROTEIN
REMARK  99  GASTEIGER
REMARK  99
REMARK  99

$$$$
CHEMBL3318039
  SciTegic05292516403D

 61 63  0  0  0  0            999 V2000
    6.6925  -13.7396   -0.0558 C   0  0
    6.6269  -15.1125    0.0290 C   0  0
    7.8100  -15.7795   -0.1788 C   0  0
    8.9891  -15.2017   -0.4401 N   0  0
    8.9473  -13.8665   -0.4980 C   0  0
    7.8518  -13.1183   -0.3165 N   0  0
    7.8761  -17.4942   -0.0984 Cl  0  0
   10.4365  -12.9539   -0.7927 S   0  0
   11.5487  -13.8847    0.3287 C   0  0  2  0  0  0
   12.5093  -12.9108    1.0232 C   0  0
   13.6089  -13.5007    1.5738 O   0  0
   12.3131  -11.7110    1.1741 O   0  0
    5.5332  -12.9767    0.1716 N   0  0
    5.4085  -11.6073    0.4654 C   0  0
    6.4238  -10.8678    1.0891 C   0  0
    6.2960   -9.4905    1.2958 C   0  0
    5.1515   -8.8321    0.8483 C   0  0
    4.1064   -9.5584    0.2764 C   0  0
    4.2369  -10.9365    0.0878 C   0  0
   12.2627  -14.9806   -0.4933 C   0  0
   12.2797  -16.3306    0.2423 C   0  0
   13.0395  -17.3903   -0.5583 C   0  0
   13.0367  -18.7391    0.1631 C   0  0
    5.0121   -7.3644    0.9463 C   0  0
    5.9942   -6.4406    0.3051 C   0  0
    7.0608   -6.9009   -0.4748 C   0  0
    7.9362   -5.9940   -1.0766 C   0  0
    7.7532   -4.6176   -0.9306 C   0  0
    6.6704   -4.1539   -0.1826 C   0  0
    5.8002   -5.0574    0.4405 C   0  0
   13.7975  -19.7980   -0.6343 C   0  0
   13.7950  -21.1408    0.0789 C   0  0
    4.0249   -6.9157    1.5233 O   0  0
    8.5820   -3.7377   -1.5998 N   0  0
    5.7092  -15.6364    0.2549 H   0  0
   10.9542  -14.3226    1.1395 H   0  0
   13.7463  -14.4595    1.4508 H   0  0
    4.6788  -13.4211   -0.1388 H   0  0
    7.3367  -11.3562    1.4214 H   0  0
    7.1016   -8.9460    1.7820 H   0  0
    3.2022   -9.0493   -0.0454 H   0  0
    3.4206  -11.4743   -0.3876 H   0  0
   11.7681  -15.1524   -1.4582 H   0  0
   13.2899  -14.6781   -0.7326 H   0  0
   12.7351  -16.2264    1.2326 H   0  0
   11.2498  -16.6696    0.4041 H   0  0
   12.5806  -17.5029   -1.5481 H   0  0
   14.0733  -17.0595   -0.7160 H   0  0
   13.4934  -18.6268    1.1540 H   0  0
   12.0026  -19.0697    0.3196 H   0  0
    7.2303   -7.9574   -0.6571 H   0  0
    8.7513   -6.3782   -1.6854 H   0  0
    6.4919   -3.0829   -0.0795 H   0  0
    4.9579   -4.6677    1.0129 H   0  0
   13.3434  -19.9162   -1.6250 H   0  0
   14.8336  -19.4750   -0.7885 H   0  0
   14.3450  -21.8828   -0.5083 H   0  0
   12.7735  -21.5084    0.2197 H   0  0
   14.2714  -21.0642    1.0614 H   0  0
    9.4702   -4.0826   -1.9490 H   0  0
    8.4421   -2.7323   -1.5315 H   0  0
  1  2  2  0
  1 13  1  0
  2  3  1  0
  2 35  1  0
  3  4  2  0
  3  7  1  0
  4  5  1  0
  5  6  2  0
  5  8  1  0
  6  1  1  0
  8  9  1  0
  9 10  1  0
  9 20  1  0
  9 36  1  0
 10 11  1  0
 10 12  2  0
 11 37  1  0
 13 14  1  0
 13 38  1  0
 14 15  2  0
 15 16  1  0
 15 39  1  0
 16 17  2  0
 16 40  1  0
 17 18  1  0
 17 24  1  0
 18 19  2  0
 18 41  1  0
 19 14  1  0
 19 42  1  0
 20 21  1  0
 20 43  1  0
 20 44  1  0
 21 22  1  0
 21 45  1  0
 21 46  1  0
 22 23  1  0
 22 47  1  0
 22 48  1  0
 23 31  1  0
 23 49  1  0
 23 50  1  0
 24 25  1  0
 24 33  2  0
 25 26  2  0
 26 27  1  0
 26 51  1  0
 27 28  2  0
 27 52  1  0
 28 29  1  0
 28 34  1  0
 29 30  2  0
 29 53  1  0
 30 25  1  0
 30 54  1  0
 31 32  1  0
 31 55  1  0
 31 56  1  0
 32 57  1  0
 32 58  1  0
 32 59  1  0
 34 60  1  0
 34 61  1  0
M  END
> <Name>
CHEMBL3318039

> <Clean Energy>
9.23255

> <chembl_id>
CHEMBL3318039

> <chembl_pref_name>
None

> <efficacy>
1.111111111

> <Forcefield>
MMFF

> <ForcefieldBase>
MMFF

> <ForcefieldFFML>
<?xml version="1.0" encoding="UTF-8"?>
<!DOCTYPE ffml SYSTEM "Ffml.dtd">
<ffml version="1.0">
<forcefield name="MMFF" derivedFrom="MMFF" base="MMFF">
<atomTypes>
<atomType
name="C100"
element="C"
mass="12.011"
annotation=""/>
<atomType
name="N101"
element="N"
mass="14.007"
annotation=""/>
<atomType
name="Cl102"
element="Cl"
mass="35.453"
annotation=""/>
<atomType
name="S103"
element="S"
mass="32.066"
annotation=""/>
<atomType
name="O104"
element="O"
mass="16"
annotation=""/>
<atomType
name="H105"
element="H"
mass="1.008"
annotation=""/>
</atomTypes>
<parameters>
</parameters>
</forcefield>
</ffml>

> <Initial Potential Energy>
99.10424

> <Initial RMS Gradient>
41.05175

> <Minimization Criteria>
CONJUG> Minimization exiting with gradient tolerance ( 0.0100000) satisfied.

> <CHARMm Energy>
-51.79097

> <Potential Energy>
-51.79097

> <RMS Gradient>
0.00969

> <Bond Energy>
5.50071

> <Angle Energy>
16.09168

> <STRBend>
0.85287

> <Dihedral Energy>
15.47705

> <OOPLane>
1.05518

> <Van der Waals Energy>
64.0602

> <Electrostatic Energy>
-154.82865

> <Hydrogen Bond Energy>
0

> <Solvation Free Energy>
0

> <HasGasteigerCharges>
true

> <REMARK99>
REMARK  99  MacroMolecule created from Mol2 file
REMARK  99  CHEMBL3318039
REMARK  99  PROTEIN
REMARK  99  GASTEIGER
REMARK  99
REMARK  99

$$$$
CHEMBL482823
  SciTegic05292516403D

 55 56  0  0  0  0            999 V2000
   -7.7527  -17.4214    0.2460 C   0  0
   -7.7719  -18.8123    0.1197 C   0  0
   -6.6435  -19.5005   -0.3463 C   0  0
   -5.5101  -18.7678   -0.7273 C   0  0
   -5.4851  -17.3779   -0.5826 C   0  0
   -6.6046  -16.7048   -0.0868 C   0  0
   -4.2338  -16.6242   -0.8543 C   0  0
   -3.4235  -17.0024   -2.0746 C   0  0
   -3.8772  -15.7027   -0.0086 N   0  0
   -2.6358  -15.1403   -0.3482 O   0  0
   -2.2214  -14.2972    0.7287 C   0  0
   -0.8138  -13.7918    0.5104 C   0  0
    0.2133  -14.6668    0.1272 C   0  0
    1.5306  -14.2169   -0.0032 C   0  0
    1.8427  -12.8835    0.2614 C   0  0
    0.8248  -12.0023    0.6310 C   0  0
   -0.4931  -12.4532    0.7622 C   0  0
   -6.6284  -21.0148   -0.4018 C   0  0
   -5.4900  -21.5995    0.4611 C   0  0  1  0  0  0
   -5.9933  -22.8906    1.1205 C   0  0
   -4.3567  -21.7771   -0.3912 O   0  0
   -3.1294  -21.9179    0.3255 C   0  0
   -2.0114  -22.1039   -0.6806 C   0  0
   -6.8664  -22.6680    2.1395 O   0  0
   -5.6623  -24.0229    0.8022 O   0  0
    3.0976  -12.3305    0.1764 O   0  0
    4.4491  -13.2443    0.1361 S   0  0
    5.6211  -11.9145    0.2408 C   0  0
    4.5260  -14.0329    1.3503 O   0  0
    4.5599  -13.8651   -1.1695 O   0  0
   -8.6303  -16.8974    0.6184 H   0  0
   -8.6747  -19.3511    0.3996 H   0  0
   -4.6282  -19.2928   -1.0897 H   0  0
   -6.5820  -15.6254    0.0434 H   0  0
   -3.1459  -16.1006   -2.6286 H   0  0
   -3.9907  -17.6440   -2.7539 H   0  0
   -2.5166  -17.5260   -1.7590 H   0  0
   -2.9222  -13.4565    0.7949 H   0  0
   -2.2501  -14.8550    1.6730 H   0  0
   -0.0105  -15.7149   -0.0675 H   0  0
    2.2966  -14.9216   -0.3157 H   0  0
    1.0520  -10.9582    0.8301 H   0  0
   -1.2562  -11.7392    1.0659 H   0  0
   -7.6052  -21.3878   -0.0702 H   0  0
   -6.5193  -21.3162   -1.4516 H   0  0
   -5.2166  -20.9117    1.2731 H   0  0
   -2.9455  -21.0163    0.9200 H   0  0
   -3.1790  -22.7846    0.9924 H   0  0
   -1.0467  -22.2106   -0.1769 H   0  0
   -1.9613  -21.2490   -1.3632 H   0  0
   -2.1898  -22.9924   -1.2952 H   0  0
   -7.0036  -21.7211    2.3412 H   0  0
    6.6246  -12.3447    0.2257 H   0  0
    5.4597  -11.3747    1.1757 H   0  0
    5.4842  -11.2549   -0.6181 H   0  0
  1  2  2  0
  1 31  1  0
  2  3  1  0
  2 32  1  0
  3  4  2  0
  3 18  1  0
  4  5  1  0
  4 33  1  0
  5  6  2  0
  5  7  1  0
  6  1  1  0
  6 34  1  0
  7  8  1  0
  7  9  2  0
  8 35  1  0
  8 36  1  0
  8 37  1  0
  9 10  1  0
 10 11  1  0
 11 12  1  0
 11 38  1  0
 11 39  1  0
 12 13  2  0
 13 14  1  0
 13 40  1  0
 14 15  2  0
 14 41  1  0
 15 16  1  0
 15 26  1  0
 16 17  2  0
 16 42  1  0
 17 12  1  0
 17 43  1  0
 18 19  1  0
 18 44  1  0
 18 45  1  0
 19 20  1  0
 19 21  1  0
 19 46  1  0
 20 24  1  0
 20 25  2  0
 21 22  1  0
 22 23  1  0
 22 47  1  0
 22 48  1  0
 23 49  1  0
 23 50  1  0
 23 51  1  0
 24 52  1  0
 26 27  1  0
 27 28  1  0
 27 29  2  0
 27 30  2  0
 28 53  1  0
 28 54  1  0
 28 55  1  0
M  END
> <Name>
CHEMBL482823

> <Clean Energy>
103.594002

> <chembl_id>
CHEMBL482823

> <chembl_pref_name>
None

> <efficacy>
1.29

> <Forcefield>
MMFF

> <ForcefieldBase>
MMFF

> <ForcefieldFFML>
<?xml version="1.0" encoding="UTF-8"?>
<!DOCTYPE ffml SYSTEM "Ffml.dtd">
<ffml version="1.0">
<forcefield name="MMFF" derivedFrom="MMFF" base="MMFF">
<atomTypes>
<atomType
name="C100"
element="C"
mass="12.011"
annotation=""/>
<atomType
name="N101"
element="N"
mass="14.007"
annotation=""/>
<atomType
name="O102"
element="O"
mass="16"
annotation=""/>
<atomType
name="S103"
element="S"
mass="32.066"
annotation=""/>
<atomType
name="H104"
element="H"
mass="1.008"
annotation=""/>
</atomTypes>
<parameters>
</parameters>
</forcefield>
</ffml>

> <Initial Potential Energy>
345.66724

> <Initial RMS Gradient>
32.9819

> <Minimization Criteria>
CONJUG> Minimization exiting with gradient tolerance ( 0.0100000) satisfied.

> <CHARMm Energy>
106.06373

> <Potential Energy>
106.06373

> <RMS Gradient>
0.00999

> <Bond Energy>
4.84497

> <Angle Energy>
10.18133

> <STRBend>
0.97317

> <Dihedral Energy>
5.49337

> <OOPLane>
0.10136

> <Van der Waals Energy>
49.51859

> <Electrostatic Energy>
34.95094

> <Hydrogen Bond Energy>
0

> <Solvation Free Energy>
0

> <HasGasteigerCharges>
true

> <REMARK99>
REMARK  99  MacroMolecule created from Mol2 file
REMARK  99  CHEMBL482823
REMARK  99  PROTEIN
REMARK  99  GASTEIGER
REMARK  99
REMARK  99

$$$$
CHEMBL144489
  SciTegic05292516403D

 59 61  0  0  0  0            999 V2000
   13.1938    2.3662    0.7478 C   0  0
    2.5961   -1.4051   -0.4484 C   0  0
   11.9633    1.5194    0.3644 C   0  0  2  0  0  0
    1.1960   -0.9494   -0.3238 C   0  0
   -1.4949   -0.0873   -0.0880 C   0  0
   14.2359    1.9310    1.2172 O   0  0
   10.8761    1.7427    1.4317 C   0  0
    3.5628   -0.6283    0.0723 C   0  0
    0.6124   -0.7649    0.9356 C   0  0
    0.4287   -0.7011   -1.4645 C   0  0
   -0.7171   -0.3425    1.0514 C   0  0
   -0.8976   -0.2712   -1.3455 C   0  0
   -2.8913    0.3648    0.0272 C   0  0
    9.4954    1.3523    0.9461 C   0  0
   13.0413    3.6921    0.4892 O   0  0
    6.9275    0.6064    0.0682 C   0  0
    5.0478   -0.8542    0.0649 C   0  0
   12.2128    0.1131    0.2940 O   0  0
    9.1163    0.0035    0.8955 C   0  0
    8.5795    2.3246    0.5293 C   0  0
    7.8431   -0.3695    0.4533 C   0  0
    7.3079    1.9498    0.0890 C   0  0
    5.6533    0.3701   -0.3636 O   0  0
    2.7837   -2.7181   -1.1564 C   0  0
   -3.8441   -0.3868    0.7354 C   0  0
   -3.3116    1.5642   -0.5729 C   0  0
   12.9987   -0.2628   -0.8348 C   0  0
   13.1563   -1.7706   -0.8198 C   0  0
   -4.6361    1.9983   -0.4705 C   0  0
   -5.1712    0.0439    0.8365 C   0  0
   -5.5647    1.2364    0.2340 C   0  0
   11.6141    1.8607   -0.6192 H   0  0
   11.1043    1.1588    2.3336 H   0  0
   10.8493    2.7916    1.7534 H   0  0
    3.2916    0.3078    0.5610 H   0  0
    1.1909   -0.9535    1.8373 H   0  0
    0.8570   -0.8268   -2.4562 H   0  0
   -1.1408   -0.2018    2.0438 H   0  0
   -1.4682   -0.0871   -2.2527 H   0  0
   12.1813    3.9319    0.0938 H   0  0
    5.3459   -1.1082    1.0895 H   0  0
    5.3489   -1.6519   -0.6196 H   0  0
    9.8188   -0.7719    1.1979 H   0  0
    8.8388    3.3801    0.5528 H   0  0
    7.6016   -1.4266    0.4145 H   0  0
    6.5973    2.7118   -0.2236 H   0  0
    2.6406   -2.6017   -2.2357 H   0  0
    2.0672   -3.4613   -0.7883 H   0  0
    3.7804   -3.1380   -0.9945 H   0  0
   -3.5595   -1.3267    1.2042 H   0  0
   -2.5972    2.1778   -1.1188 H   0  0
   12.4934    0.0449   -1.7568 H   0  0
   13.9838    0.2108   -0.7906 H   0  0
   13.7466   -2.1112   -1.6752 H   0  0
   12.1773   -2.2604   -0.8499 H   0  0
   13.6480   -2.0971    0.1027 H   0  0
   -4.9412    2.9309   -0.9390 H   0  0
   -5.8985   -0.5519    1.3827 H   0  0
   -6.5951    1.5724    0.3134 H   0  0
  2  8  2  0
  3  1  1  0
  3 18  1  0
  3 32  1  0
  4  2  1  0
  5 11  1  0
  5 12  2  0
  6  1  2  0
  7  3  1  0
  7 33  1  0
  7 34  1  0
  8 17  1  0
  8 35  1  0
  9  4  1  0
  9 36  1  0
 10  4  2  0
 10 37  1  0
 11  9  2  0
 11 38  1  0
 12 10  1  0
 12 39  1  0
 13  5  1  0
 14  7  1  0
 15  1  1  0
 15 40  1  0
 16 21  2  0
 16 22  1  0
 17 23  1  0
 17 41  1  0
 17 42  1  0
 19 14  2  0
 19 43  1  0
 20 14  1  0
 20 44  1  0
 21 19  1  0
 21 45  1  0
 22 20  2  0
 22 46  1  0
 23 16  1  0
 24  2  1  0
 24 47  1  0
 24 48  1  0
 24 49  1  0
 25 13  1  0
 25 50  1  0
 26 13  2  0
 26 51  1  0
 27 18  1  0
 27 52  1  0
 27 53  1  0
 28 27  1  0
 28 54  1  0
 28 55  1  0
 28 56  1  0
 29 26  1  0
 29 57  1  0
 30 25  2  0
 30 31  1  0
 30 58  1  0
 31 29  2  0
 31 59  1  0
M  END
> <Name>
CHEMBL144489

> <Clean Energy>
13.2732

> <chembl_id>
CHEMBL144489

> <chembl_pref_name>
None

> <efficacy>
1.18

> <Forcefield>
MMFF

> <ForcefieldBase>
MMFF

> <ForcefieldFFML>
<?xml version="1.0" encoding="UTF-8"?>
<!DOCTYPE ffml SYSTEM "Ffml.dtd">
<ffml version="1.0">
<forcefield name="MMFF" derivedFrom="MMFF" base="MMFF">
<atomTypes>
<atomType
name="C100"
element="C"
mass="12.011"
annotation=""/>
<atomType
name="O101"
element="O"
mass="16"
annotation=""/>
<atomType
name="H102"
element="H"
mass="1.008"
annotation=""/>
</atomTypes>
<parameters>
</parameters>
</forcefield>
</ffml>

> <Initial Potential Energy>
180.15487

> <Initial RMS Gradient>
27.96608

> <Minimization Criteria>
STEEPD> Minimization exiting with gradient tolerance ( 3.0000000) satisfied.

> <CHARMm Energy>
96.30775

> <Potential Energy>
96.30775

> <RMS Gradient>
0.10392

> <Bond Energy>
7.08588

> <Angle Energy>
11.98917

> <STRBend>
-0.10828

> <Dihedral Energy>
8.26157

> <OOPLane>
0.02028

> <Van der Waals Energy>
62.75489

> <Electrostatic Energy>
6.30425

> <Hydrogen Bond Energy>
0

> <Solvation Free Energy>
0

> <HasGasteigerCharges>
true

> <REMARK99>
REMARK  99  MacroMolecule created from Mol2 file
REMARK  99  CHEMBL144489
REMARK  99  PROTEIN
REMARK  99  GASTEIGER
REMARK  99
REMARK  99

$$$$
CHEMBL4167789
  SciTegic05292516403D

 70 73  0  0  0  0            999 V2000
   19.0871  -13.3779   -0.9220 C   0  0
   18.8278  -14.7593   -0.8464 C   0  0
   19.9046  -15.6594   -0.8962 C   0  0
   20.3999  -12.8899   -1.0331 C   0  0
   21.4498  -13.7977   -1.0724 C   0  0
   21.1970  -15.1671   -0.9999 C   0  0
   22.7046  -16.0995   -1.0372 S   0  0
   23.6688  -14.6217   -1.1401 C   0  0
   22.8268  -13.5128   -1.1722 N   0  0
   24.8907  -14.6171   -1.1708 O   0  0
   23.3974  -12.1828   -1.2185 C   0  0
   23.9604  -11.7300    0.1343 C   0  0
   24.5910  -10.4527   -0.0366 O   0  0
   25.9247  -10.4791    0.2708 C   0  0
   26.3768  -10.6968    1.5717 C   0  0
   27.7480  -10.6644    1.8475 C   0  0
   28.6727  -10.3983    0.8271 C   0  0
   28.2003  -10.1656   -0.4731 C   0  0
   26.8308  -10.1959   -0.7473 C   0  0
   30.1561  -10.3448    1.1263 C   0  0
   30.8317  -11.7208    1.1783 C   0  0  2  0  0  0
   32.2430  -11.5574    1.7571 C   0  0
   31.0015  -12.2520   -0.1567 O   0  0
   30.1024  -13.3327   -0.4257 C   0  0
   30.2752  -13.7424   -1.8743 C   0  0
   33.2149  -11.9025    0.8682 O   0  0
   32.4990  -11.1562    2.8831 O   0  0
   17.4729  -15.3277   -0.7518 C   0  0
   16.4564  -14.8343   -0.0220 C   0  0
   15.1923  -15.5777    0.1539 C   0  0
   13.9539  -14.9207    0.1895 C   0  0
   12.7601  -15.6346    0.3951 C   0  0
   12.8149  -17.0220    0.5742 C   0  0
   14.0422  -17.6875    0.5633 C   0  0
   15.2161  -16.9615    0.3658 C   0  0
   14.2455  -19.0288    0.7366 O   0  0
   11.6144  -14.8762    0.4033 O   0  0
   13.0935  -19.8390    0.9190 C   0  0
   10.3808  -15.5542    0.6170 C   0  0
   18.2614  -12.6684   -0.9066 H   0  0
   19.7350  -16.7318   -0.8400 H   0  0
   20.5729  -11.8192   -1.0905 H   0  0
   24.2191  -12.1951   -1.9470 H   0  0
   22.6787  -11.4540   -1.6063 H   0  0
   23.1441  -11.6064    0.8552 H   0  0
   24.6396  -12.4906    0.5408 H   0  0
   25.6707  -10.8716    2.3778 H   0  0
   28.0893  -10.8245    2.8688 H   0  0
   28.8977   -9.9497   -1.2803 H   0  0
   26.4748   -9.9983   -1.7542 H   0  0
   30.6483   -9.7196    0.3692 H   0  0
   30.2890   -9.8160    2.0794 H   0  0
   30.3003  -12.4349    1.8194 H   0  0
   30.3454  -14.1750    0.2311 H   0  0
   29.0675  -13.0272   -0.2472 H   0  0
   29.6142  -14.5765   -2.1256 H   0  0
   31.3107  -14.0396   -2.0705 H   0  0
   30.0531  -12.9022   -2.5405 H   0  0
   32.7497  -12.1892    0.0439 H   0  0
   17.3466  -16.2698   -1.2845 H   0  0
   16.5470  -13.9018    0.5277 H   0  0
   13.9201  -13.8425    0.0496 H   0  0
   11.9049  -17.5842    0.7299 H   0  0
   16.1645  -17.4952    0.3909 H   0  0
   13.4265  -20.8756    1.0277 H   0  0
   12.4341  -19.7909    0.0461 H   0  0
   12.5585  -19.5635    1.8338 H   0  0
    9.5815  -14.8072    0.5967 H   0  0
   10.3619  -16.0368    1.5996 H   0  0
   10.1844  -16.2749   -0.1835 H   0  0
  1  2  2  0
  1 40  1  0
  2  3  1  0
  2 28  1  0
  3  6  2  0
  3 41  1  0
  4  1  1  0
  4 42  1  0
  5  4  2  0
  5  6  1  0
  6  7  1  0
  7  8  1  0
  8  9  1  0
  8 10  2  0
  9  5  1  0
  9 11  1  0
 11 12  1  0
 11 43  1  0
 11 44  1  0
 12 13  1  0
 12 45  1  0
 12 46  1  0
 13 14  1  0
 14 15  2  0
 15 16  1  0
 15 47  1  0
 16 17  2  0
 16 48  1  0
 17 18  1  0
 17 20  1  0
 18 19  2  0
 18 49  1  0
 19 14  1  0
 19 50  1  0
 20 21  1  0
 20 51  1  0
 20 52  1  0
 21 22  1  0
 21 23  1  0
 21 53  1  0
 22 26  1  0
 22 27  2  0
 23 24  1  0
 24 25  1  0
 24 54  1  0
 24 55  1  0
 25 56  1  0
 25 57  1  0
 25 58  1  0
 26 59  1  0
 28 29  2  0
 28 60  1  0
 29 30  1  0
 29 61  1  0
 30 31  2  0
 31 32  1  0
 31 62  1  0
 32 33  2  0
 32 37  1  0
 33 34  1  0
 33 63  1  0
 34 35  2  0
 34 36  1  0
 35 30  1  0
 35 64  1  0
 36 38  1  0
 37 39  1  0
 38 65  1  0
 38 66  1  0
 38 67  1  0
 39 68  1  0
 39 69  1  0
 39 70  1  0
M  END
> <Name>
CHEMBL4167789

> <Clean Energy>
33.345901

> <chembl_id>
CHEMBL4167789

> <chembl_pref_name>
None

> <efficacy>
2.23

> <Forcefield>
MMFF

> <ForcefieldBase>
MMFF

> <ForcefieldFFML>
<?xml version="1.0" encoding="UTF-8"?>
<!DOCTYPE ffml SYSTEM "Ffml.dtd">
<ffml version="1.0">
<forcefield name="MMFF" derivedFrom="MMFF" base="MMFF">
<atomTypes>
<atomType
name="C100"
element="C"
mass="12.011"
annotation=""/>
<atomType
name="S101"
element="S"
mass="32.066"
annotation=""/>
<atomType
name="N102"
element="N"
mass="14.007"
annotation=""/>
<atomType
name="O103"
element="O"
mass="16"
annotation=""/>
<atomType
name="H104"
element="H"
mass="1.008"
annotation=""/>
</atomTypes>
<parameters>
</parameters>
</forcefield>
</ffml>

> <Initial Potential Energy>
195.3246

> <Initial RMS Gradient>
27.48161

> <Minimization Criteria>
CONJUG> Minimization exiting with gradient tolerance ( 0.0100000) satisfied.

> <CHARMm Energy>
65.97032

> <Potential Energy>
65.97032

> <RMS Gradient>
0.00958

> <Bond Energy>
7.20715

> <Angle Energy>
30.11484

> <STRBend>
0.6582

> <Dihedral Energy>
10.6815

> <OOPLane>
0.11298

> <Van der Waals Energy>
75.85598

> <Electrostatic Energy>
-58.66031

> <Hydrogen Bond Energy>
0

> <Solvation Free Energy>
0

> <HasGasteigerCharges>
true

> <REMARK99>
REMARK  99  MacroMolecule created from Mol2 file
REMARK  99  CHEMBL4167789
REMARK  99  PROTEIN
REMARK  99  GASTEIGER
REMARK  99
REMARK  99

$$$$
CHEMBL3764216
  SciTegic05292516403D

 47 48  0  0  0  0            999 V2000
   -2.3857   -2.9887   -0.9216 F   0  0
   -1.0883   -2.8574   -0.5290 C   0  0
   -0.3583   -3.5458   -1.4484 F   0  0
    2.0710    0.7213   -1.5052 F   0  0
    0.4992   -0.9723   -1.0350 C   0  0
    0.9330    0.3413   -0.9094 C   0  0
    0.2019    1.2628   -0.1727 C   0  0
   -0.9731    0.8594    0.4643 C   0  0
   -1.4162   -0.4772    0.3846 C   0  0
   -0.6800   -1.4031   -0.3955 C   0  0
   -2.6521   -0.8781    1.1625 C   0  0
   -3.8756   -0.5547    0.4831 N   0  0
   -5.0504   -1.1425    0.9105 C   0  0
   -6.3197   -0.6024    0.3559 C   0  0
   -5.0814   -2.0153    1.7720 O   0  0
   -7.4802   -0.7551    1.1268 C   0  0
   -8.6804   -0.1739    0.7202 C   0  0
   -8.7303    0.5737   -0.4614 C   0  0
   -7.5850    0.6684   -1.2655 C   0  0
   -6.3843    0.0797   -0.8627 C   0  0
   -9.9821    1.3307   -0.8276 C   0  0
   -9.8643    2.8341   -0.4994 C   0  0  1  0  0  0
  -11.0405    3.5637   -1.1106 C   0  0
   -9.8325    3.1371    1.0124 C   0  0
   -8.4384    3.5136    1.4976 C   0  0
  -10.7976    4.8799   -1.3260 O   0  0
  -12.1231    3.0593   -1.3630 O   0  0
   -0.9675   -3.5418    0.6388 F   0  0
    1.1025   -1.6617   -1.6235 H   0  0
    0.5761    2.2792   -0.0838 H   0  0
   -1.5435    1.5871    1.0427 H   0  0
   -2.6317   -1.9433    1.4143 H   0  0
   -2.6621   -0.3508    2.1252 H   0  0
   -3.8847    0.2233   -0.1585 H   0  0
   -7.4432   -1.3045    2.0659 H   0  0
   -9.5636   -0.2810    1.3484 H   0  0
   -7.6184    1.2175   -2.2045 H   0  0
   -5.5186    0.1637   -1.5117 H   0  0
  -10.1699    1.1902   -1.9008 H   0  0
  -10.8513    0.8919   -0.3200 H   0  0
   -8.9625    3.2217   -0.9925 H   0  0
  -10.5022    3.9712    1.2577 H   0  0
  -10.1979    2.2813    1.5914 H   0  0
   -8.4584    3.7258    2.5713 H   0  0
   -8.0767    4.4103    0.9840 H   0  0
   -7.7193    2.7081    1.3278 H   0  0
   -9.8899    5.1420   -1.0775 H   0  0
  2  1  1  0
  2 28  1  0
  3  2  1  0
  5  6  2  0
  5 29  1  0
  6  4  1  0
  6  7  1  0
  7  8  2  0
  7 30  1  0
  8  9  1  0
  8 31  1  0
  9 10  2  0
  9 11  1  0
 10  2  1  0
 10  5  1  0
 11 12  1  0
 11 32  1  0
 11 33  1  0
 12 13  1  0
 12 34  1  0
 13 14  1  0
 13 15  2  0
 14 16  2  0
 16 17  1  0
 16 35  1  0
 17 18  2  0
 17 36  1  0
 18 19  1  0
 18 21  1  0
 19 20  2  0
 19 37  1  0
 20 14  1  0
 20 38  1  0
 21 22  1  0
 21 39  1  0
 21 40  1  0
 22 23  1  0
 22 24  1  0
 22 41  1  0
 23 26  1  0
 23 27  2  0
 24 25  1  0
 24 42  1  0
 24 43  1  0
 25 44  1  0
 25 45  1  0
 25 46  1  0
 26 47  1  0
M  END
> <Name>
CHEMBL3764216

> <Clean Energy>
28.882799

> <chembl_id>
CHEMBL3764216

> <chembl_pref_name>
None

> <efficacy>
1.500474834

> <Forcefield>
MMFF

> <ForcefieldBase>
MMFF

> <ForcefieldFFML>
<?xml version="1.0" encoding="UTF-8"?>
<!DOCTYPE ffml SYSTEM "Ffml.dtd">
<ffml version="1.0">
<forcefield name="MMFF" derivedFrom="MMFF" base="MMFF">
<atomTypes>
<atomType
name="F100"
element="F"
mass="18.998"
annotation=""/>
<atomType
name="C101"
element="C"
mass="12.011"
annotation=""/>
<atomType
name="N102"
element="N"
mass="14.007"
annotation=""/>
<atomType
name="O103"
element="O"
mass="16"
annotation=""/>
<atomType
name="H104"
element="H"
mass="1.008"
annotation=""/>
</atomTypes>
<parameters>
</parameters>
</forcefield>
</ffml>

> <Initial Potential Energy>
88.77464

> <Initial RMS Gradient>
27.44112

> <Minimization Criteria>
CONJUG> Minimization exiting with gradient tolerance ( 0.0100000) satisfied.

> <CHARMm Energy>
15.23852

> <Potential Energy>
15.23852

> <RMS Gradient>
0.00977

> <Bond Energy>
5.52032

> <Angle Energy>
5.15998

> <STRBend>
0.73416

> <Dihedral Energy>
-1.58596

> <OOPLane>
0.30973

> <Van der Waals Energy>
47.10256

> <Electrostatic Energy>
-42.00227

> <Hydrogen Bond Energy>
0

> <Solvation Free Energy>
0

> <HasGasteigerCharges>
true

> <REMARK99>
REMARK  99  MacroMolecule created from Mol2 file
REMARK  99  CHEMBL3764216
REMARK  99  PROTEIN
REMARK  99  GASTEIGER
REMARK  99
REMARK  99

$$$$
CHEMBL4593987
  SciTegic05292516403D

 56 57  0  0  0  0            999 V2000
    5.0088   -2.9071    0.8087 C   0  0
    6.0929   -3.5928    1.6403 C   0  0
    3.7559   -2.4479    1.5870 C   0  0  2  0  0  0
    0.4218   -2.9166   -1.8710 C   0  0
    0.2437   -4.2517   -1.5256 C   0  0
    0.9155   -4.8062   -0.4441 C   0  0
    1.3033   -2.1177   -1.1282 C   0  0
    1.9968   -2.6821   -0.0418 C   0  0
    1.7883   -4.0200    0.3177 C   0  0
    2.5111   -4.6347    1.4781 C   0  0
    3.0537   -3.5504    2.3932 C   0  0
    2.8592   -1.8517    0.6277 O   0  0
    1.5220   -0.6809   -1.5110 C   0  0
   -0.5878   -5.0660   -2.2337 O   0  0
    4.1231   -1.3023    2.5469 C   0  0
    7.3276   -3.7587    0.7998 C   0  0
    8.3800   -2.9188    0.7447 C   0  0
    9.4981   -3.1661   -0.2453 C   0  0
    8.5010   -1.6478    1.5453 C   0  0
   10.8438   -3.4873    0.4110 C   0  0
   11.9031   -3.6184   -0.6492 C   0  0
   12.7848   -2.6693   -1.0217 C   0  0
   13.6767   -2.9479   -2.1750 C   0  0
   12.8969   -1.2774   -0.4785 C   0  0
   14.2538   -4.1637   -2.1109 O   0  0
   13.8901   -2.1465   -3.0676 O   0  0
    5.4300   -2.0277    0.2991 H   0  0
    4.7177   -3.5749   -0.0135 H   0  0
    6.3166   -3.0384    2.5551 H   0  0
    5.7562   -4.5850    1.9623 H   0  0
   -0.1099   -2.4915   -2.7171 H   0  0
    0.7553   -5.8524   -0.1969 H   0  0
    1.8339   -5.2800    2.0500 H   0  0
    3.3266   -5.2619    1.1000 H   0  0
    2.2056   -3.1107    2.9372 H   0  0
    3.7171   -3.9890    3.1469 H   0  0
    2.5583   -0.5281   -1.8289 H   0  0
    1.3001   -0.0230   -0.6644 H   0  0
    0.8702   -0.3824   -2.3389 H   0  0
   -1.0526   -4.5379   -2.9040 H   0  0
    3.2194   -0.8547    2.9779 H   0  0
    4.6381   -0.4945    2.0141 H   0  0
    4.7602   -1.6371    3.3707 H   0  0
    7.3144   -4.6317    0.1472 H   0  0
    9.2300   -3.9846   -0.9273 H   0  0
    9.5936   -2.2754   -0.8815 H   0  0
    8.7839   -0.8142    0.8935 H   0  0
    9.2670   -1.7566    2.3191 H   0  0
    7.5686   -1.3566    2.0351 H   0  0
   11.1167   -2.7291    1.1510 H   0  0
   10.7782   -4.4344    0.9607 H   0  0
   11.8634   -4.5614   -1.1961 H   0  0
   13.8908   -1.1224   -0.0457 H   0  0
   12.1611   -1.0601    0.2994 H   0  0
   12.7479   -0.5380   -1.2726 H   0  0
   14.1337   -4.6107   -1.2534 H   0  0
  1  2  1  0
  1  3  1  0
  1 27  1  0
  1 28  1  0
  2 16  1  0
  2 29  1  0
  2 30  1  0
  3 12  1  0
  3 15  1  0
  4  5  2  0
  4 31  1  0
  5  6  1  0
  5 14  1  0
  6  9  2  0
  6 32  1  0
  7  4  1  0
  7 13  1  0
  8  7  2  0
  8  9  1  0
  8 12  1  0
  9 10  1  0
 10 11  1  0
 10 33  1  0
 10 34  1  0
 11  3  1  0
 11 35  1  0
 11 36  1  0
 13 37  1  0
 13 38  1  0
 13 39  1  0
 14 40  1  0
 15 41  1  0
 15 42  1  0
 15 43  1  0
 16 17  2  0
 16 44  1  0
 17 18  1  0
 17 19  1  0
 18 20  1  0
 18 45  1  0
 18 46  1  0
 19 47  1  0
 19 48  1  0
 19 49  1  0
 20 21  1  0
 20 50  1  0
 20 51  1  0
 21 22  2  0
 21 52  1  0
 22 23  1  0
 22 24  1  0
 23 25  1  0
 23 26  2  0
 24 53  1  0
 24 54  1  0
 24 55  1  0
 25 56  1  0
M  END
> <Name>
CHEMBL4593987

> <Clean Energy>
14.1262

> <chembl_id>
CHEMBL4593987

> <chembl_pref_name>
None

> <efficacy>
0.95

> <Forcefield>
MMFF

> <ForcefieldBase>
MMFF

> <ForcefieldFFML>
<?xml version="1.0" encoding="UTF-8"?>
<!DOCTYPE ffml SYSTEM "Ffml.dtd">
<ffml version="1.0">
<forcefield name="MMFF" derivedFrom="MMFF" base="MMFF">
<atomTypes>
<atomType
name="C100"
element="C"
mass="12.011"
annotation=""/>
<atomType
name="O101"
element="O"
mass="16"
annotation=""/>
<atomType
name="H102"
element="H"
mass="1.008"
annotation=""/>
</atomTypes>
<parameters>
</parameters>
</forcefield>
</ffml>

> <Initial Potential Energy>
111.93453

> <Initial RMS Gradient>
21.52607

> <Minimization Criteria>
CONJUG> Minimization exiting with gradient tolerance ( 0.0100000) satisfied.

> <CHARMm Energy>
26.26234

> <Potential Energy>
26.26234

> <RMS Gradient>
0.0074

> <Bond Energy>
4.55686

> <Angle Energy>
13.8576

> <STRBend>
0.36521

> <Dihedral Energy>
-4.23227

> <OOPLane>
0.12717

> <Van der Waals Energy>
48.28589

> <Electrostatic Energy>
-36.69812

> <Hydrogen Bond Energy>
0

> <Solvation Free Energy>
0

> <HasGasteigerCharges>
true

> <REMARK99>
REMARK  99  MacroMolecule created from Mol2 file
REMARK  99  CHEMBL4593987
REMARK  99  PROTEIN
REMARK  99  GASTEIGER
REMARK  99
REMARK  99

$$$$
CHEMBL4537335
  SciTegic05292516403D

 76 79  0  0  0  0            999 V2000
   25.9779   -1.7145   -0.3543 N   0  0
   25.9149   -2.9666   -0.6821 C   0  0
   26.9590   -3.6579   -1.2742 N   0  0
   28.0341   -2.9223   -1.7386 C   0  0
   28.2154   -1.5670   -1.1587 C   0  0
   27.1675   -1.0468   -0.4962 C   0  0
   27.1915    0.3139    0.1969 C   0  0
   26.2817    1.3089   -0.5281 C   0  0
   26.7990    0.2033    1.6753 C   0  0
   28.8304   -3.3397   -2.5800 O   0  0
   29.5731   -0.9642   -1.3800 C   0  0
   30.6091   -1.6588   -0.5136 C   0  0
   31.7803   -0.9512   -0.5489 O   0  0
   30.4481   -2.7034    0.1094 O   0  0
   24.6157   -3.7189   -0.4091 C   0  0
   23.5424   -2.8859    0.2938 C   0  0
   22.2765   -3.7060    0.5412 C   0  0
   21.2056   -2.8806    1.2365 C   0  0
   26.8865   -5.0773   -1.7037 C   0  0
   27.9131   -6.0554   -1.1243 C   0  0
   28.4755   -7.0532   -1.9482 C   0  0
   29.4343   -7.9757   -1.4686 C   0  0
   29.8664   -7.9450   -0.1378 C   0  0
   29.2352   -6.9983    0.7025 C   0  0
   28.2780   -6.0728    0.2238 C   0  0
   31.1324   -8.6113    0.2909 C   0  0
   31.4132   -9.9909    0.4918 C   0  0
   32.7238  -10.3696    0.9055 C   0  0
   33.7499   -9.4409    1.0820 C   0  0
   33.4938   -8.1014    0.8616 C   0  0
   32.2135   -7.7019    0.4776 C   0  0
   30.4367  -11.1134    0.3608 C   0  0
   29.1478  -11.0413    0.3313 N   0  0
   28.6856  -12.4131    0.2769 O   0  0
   29.8040  -13.2126    0.2911 C   0  0
   30.8724  -12.3960    0.2946 N   0  0
   29.8305  -14.4371    0.3118 O   0  0
   32.8457   -1.5827    0.1752 C   0  0
   34.0904   -0.7147    0.0344 C   0  0
   35.2770   -1.3054    0.7743 C   0  0
   28.2012    0.7342    0.1878 H   0  0
   26.3443    2.2983   -0.0621 H   0  0
   25.2325    0.9942   -0.5019 H   0  0
   26.5769    1.4158   -1.5778 H   0  0
   26.9111    1.1721    2.1745 H   0  0
   27.4392   -0.5167    2.1969 H   0  0
   25.7577   -0.1137    1.8006 H   0  0
   29.8734   -1.0643   -2.4293 H   0  0
   29.5904    0.1040   -1.1513 H   0  0
   24.2239   -4.0764   -1.3688 H   0  0
   24.8526   -4.5941    0.2076 H   0  0
   23.9303   -2.5125    1.2498 H   0  0
   23.2963   -2.0074   -0.3155 H   0  0
   21.8816   -4.0779   -0.4114 H   0  0
   22.5136   -4.5805    1.1581 H   0  0
   20.3087   -3.4856    1.4021 H   0  0
   20.9234   -2.0137    0.6305 H   0  0
   21.5572   -2.5208    2.2088 H   0  0
   25.9012   -5.5024   -1.5006 H   0  0
   26.9944   -5.0694   -2.7965 H   0  0
   28.2044   -7.1003   -3.0022 H   0  0
   29.8923   -8.6664   -2.1735 H   0  0
   29.5446   -6.9200    1.7445 H   0  0
   27.8628   -5.3440    0.9167 H   0  0
   32.9842  -11.4011    1.1323 H   0  0
   34.7389   -9.7691    1.3969 H   0  0
   34.2785   -7.3602    0.9894 H   0  0
   32.0486   -6.6354    0.3061 H   0  0
   31.7925  -12.8058    0.2837 H   0  0
   32.5677   -1.6710    1.2322 H   0  0
   33.0338   -2.5792   -0.2417 H   0  0
   34.3361   -0.5938   -1.0274 H   0  0
   33.8804    0.2933    0.4118 H   0  0
   36.1556   -0.6635    0.6567 H   0  0
   35.5269   -2.2979    0.3860 H   0  0
   35.0652   -1.3983    1.8443 H   0  0
  1  2  2  0
  1  6  1  0
  2  3  1  0
  2 15  1  0
  3  4  1  0
  3 19  1  0
  4  5  1  0
  4 10  2  0
  5  6  2  0
  5 11  1  0
  6  7  1  0
  7  8  1  0
  7  9  1  0
  7 41  1  0
  8 42  1  0
  8 43  1  0
  8 44  1  0
  9 45  1  0
  9 46  1  0
  9 47  1  0
 11 12  1  0
 11 48  1  0
 11 49  1  0
 12 13  1  0
 12 14  2  0
 13 38  1  0
 15 16  1  0
 15 50  1  0
 15 51  1  0
 16 17  1  0
 16 52  1  0
 16 53  1  0
 17 18  1  0
 17 54  1  0
 17 55  1  0
 18 56  1  0
 18 57  1  0
 18 58  1  0
 19 20  1  0
 19 59  1  0
 19 60  1  0
 20 21  2  0
 21 22  1  0
 21 61  1  0
 22 23  2  0
 22 62  1  0
 23 24  1  0
 23 26  1  0
 24 25  2  0
 24 63  1  0
 25 20  1  0
 25 64  1  0
 26 27  2  0
 27 28  1  0
 27 32  1  0
 28 29  2  0
 28 65  1  0
 29 30  1  0
 29 66  1  0
 30 31  2  0
 30 67  1  0
 31 26  1  0
 31 68  1  0
 32 33  2  0
 33 34  1  0
 34 35  1  0
 35 36  1  0
 35 37  2  0
 36 32  1  0
 36 69  1  0
 38 39  1  0
 38 70  1  0
 38 71  1  0
 39 40  1  0
 39 72  1  0
 39 73  1  0
 40 74  1  0
 40 75  1  0
 40 76  1  0
M  END
> <Name>
CHEMBL4537335

> <Clean Energy>
58.101398

> <chembl_id>
CHEMBL4537335

> <chembl_pref_name>
None

> <efficacy>
1.26305793

> <Forcefield>
MMFF

> <ForcefieldBase>
MMFF

> <ForcefieldFFML>
<?xml version="1.0" encoding="UTF-8"?>
<!DOCTYPE ffml SYSTEM "Ffml.dtd">
<ffml version="1.0">
<forcefield name="MMFF" derivedFrom="MMFF" base="MMFF">
<atomTypes>
<atomType
name="N100"
element="N"
mass="14.007"
annotation=""/>
<atomType
name="C101"
element="C"
mass="12.011"
annotation=""/>
<atomType
name="O102"
element="O"
mass="16"
annotation=""/>
<atomType
name="H103"
element="H"
mass="1.008"
annotation=""/>
</atomTypes>
<parameters>
</parameters>
</forcefield>
</ffml>

> <Initial Potential Energy>
142.55593

> <Initial RMS Gradient>
24.66727

> <Minimization Criteria>
STEEPD> Minimization exiting with gradient tolerance ( 3.0000000) satisfied.

> <CHARMm Energy>
-9.05212

> <Potential Energy>
-9.05212

> <RMS Gradient>
0.02537

> <Bond Energy>
13.07007

> <Angle Energy>
28.10125

> <STRBend>
1.30195

> <Dihedral Energy>
-4.95649

> <OOPLane>
0.65397

> <Van der Waals Energy>
69.35259

> <Electrostatic Energy>
-116.57546

> <Hydrogen Bond Energy>
0

> <Solvation Free Energy>
0

> <HasGasteigerCharges>
true

> <REMARK99>
REMARK  99  MacroMolecule created from Mol2 file
REMARK  99  CHEMBL4537335
REMARK  99  PROTEIN
REMARK  99  GASTEIGER
REMARK  99
REMARK  99

$$$$
CHEMBL4546437
  SciTegic05292516403D

 73 76  0  0  0  0            999 V2000
    4.2360   -1.8480   -0.3421 N   0  0
    4.1903   -3.0967   -0.6855 C   0  0
    5.2534   -3.7736   -1.2604 N   0  0
    6.3335   -3.0248   -1.6906 C   0  0
    6.4910   -1.6752   -1.0909 C   0  0
    5.4236   -1.1701   -0.4477 C   0  0
    5.4210    0.1825    0.2615 C   0  0
    4.5208    1.1795   -0.4729 C   0  0
    4.9949    0.0515    1.7289 C   0  0
    7.1524   -3.4263   -2.5179 O   0  0
    7.8490   -1.0601   -1.2730 C   0  0
    8.8700   -1.7578   -0.3915 C   0  0
   10.0364   -1.0415   -0.3921 O   0  0
    8.7026   -2.8107    0.2156 O   0  0
   11.0885   -1.6730    0.3488 C   0  0
   12.3248   -0.8002    0.2507 C   0  0
    2.8904   -3.8613   -0.4525 C   0  0
    1.7951   -3.0450    0.2360 C   0  0
    0.5305   -3.8776    0.4452 C   0  0
   -0.5609   -3.0701    1.1295 C   0  0
    5.2018   -5.1884   -1.7080 C   0  0
    6.2211   -6.1659   -1.1146 C   0  0
    6.8164   -7.1457   -1.9369 C   0  0
    7.7694   -8.0672   -1.4436 C   0  0
    8.1624   -8.0533   -0.1005 C   0  0
    7.4985   -7.1252    0.7354 C   0  0
    6.5471   -6.2008    0.2430 C   0  0
    9.4212   -8.7152    0.3552 C   0  0
    9.7080  -10.0954    0.5440 C   0  0
   11.0091  -10.4692    0.9910 C   0  0
   12.0211   -9.5346    1.2119 C   0  0
   11.7600   -8.1942    1.0035 C   0  0
   10.4882   -7.7998    0.5873 C   0  0
    8.7457  -11.2239    0.3677 C   0  0
    7.4577  -11.1621    0.2996 N   0  0
    7.0094  -12.5369    0.2123 O   0  0
    8.1338  -13.3271    0.2500 C   0  0
    9.1943  -12.5018    0.2974 N   0  0
    8.1705  -14.5516    0.2547 O   0  0
    6.4272    0.6104    0.2808 H   0  0
    4.5661    2.1640    0.0054 H   0  0
    3.4735    0.8576   -0.4738 H   0  0
    4.8388    1.3003   -1.5144 H   0  0
    5.0872    1.0152    2.2418 H   0  0
    5.6289   -0.6693    2.2570 H   0  0
    3.9537   -0.2754    1.8260 H   0  0
    8.1742   -1.1447   -2.3162 H   0  0
    7.8531    0.0053   -1.0306 H   0  0
   10.7922   -1.7747    1.3989 H   0  0
   11.3004   -2.6613   -0.0747 H   0  0
   13.1582   -1.2407    0.8052 H   0  0
   12.1237    0.1996    0.6495 H   0  0
   12.6241   -0.6718   -0.7947 H   0  0
    2.5236   -4.2091   -1.4255 H   0  0
    3.1192   -4.7427    0.1583 H   0  0
    2.1586   -2.6801    1.2048 H   0  0
    1.5557   -2.1610   -0.3682 H   0  0
    0.1585   -4.2390   -0.5205 H   0  0
    0.7612   -4.7589    1.0548 H   0  0
   -1.4560   -3.6844    1.2690 H   0  0
   -0.8379   -2.1974    0.5295 H   0  0
   -0.2320   -2.7207    2.1134 H   0  0
    4.2150   -5.6228   -1.5342 H   0  0
    5.3363   -5.1671   -2.7977 H   0  0
    6.5766   -7.1788   -2.9989 H   0  0
    8.2539   -8.7428   -2.1452 H   0  0
    7.7768   -7.0605    1.7870 H   0  0
    6.1052   -5.4867    0.9346 H   0  0
   11.2719  -11.5017    1.2101 H   0  0
   13.0031   -9.8593    1.5518 H   0  0
   12.5340   -7.4486    1.1658 H   0  0
   10.3192   -6.7322    0.4267 H   0  0
   10.1178  -12.9040    0.3094 H   0  0
  1  2  2  0
  1  6  1  0
  2  3  1  0
  2 17  1  0
  3  4  1  0
  3 21  1  0
  4  5  1  0
  4 10  2  0
  5  6  2  0
  5 11  1  0
  6  7  1  0
  7  8  1  0
  7  9  1  0
  7 40  1  0
  8 41  1  0
  8 42  1  0
  8 43  1  0
  9 44  1  0
  9 45  1  0
  9 46  1  0
 11 12  1  0
 11 47  1  0
 11 48  1  0
 12 13  1  0
 12 14  2  0
 13 15  1  0
 15 16  1  0
 15 49  1  0
 15 50  1  0
 16 51  1  0
 16 52  1  0
 16 53  1  0
 17 18  1  0
 17 54  1  0
 17 55  1  0
 18 19  1  0
 18 56  1  0
 18 57  1  0
 19 20  1  0
 19 58  1  0
 19 59  1  0
 20 60  1  0
 20 61  1  0
 20 62  1  0
 21 22  1  0
 21 63  1  0
 21 64  1  0
 22 23  2  0
 23 24  1  0
 23 65  1  0
 24 25  2  0
 24 66  1  0
 25 26  1  0
 25 28  1  0
 26 27  2  0
 26 67  1  0
 27 22  1  0
 27 68  1  0
 28 29  2  0
 29 30  1  0
 29 34  1  0
 30 31  2  0
 30 69  1  0
 31 32  1  0
 31 70  1  0
 32 33  2  0
 32 71  1  0
 33 28  1  0
 33 72  1  0
 34 35  2  0
 35 36  1  0
 36 37  1  0
 37 38  1  0
 37 39  2  0
 38 34  1  0
 38 73  1  0
M  END
> <Name>
CHEMBL4546437

> <Clean Energy>
58.2131

> <chembl_id>
CHEMBL4546437

> <chembl_pref_name>
None

> <efficacy>
1.13960114

> <Forcefield>
MMFF

> <ForcefieldBase>
MMFF

> <ForcefieldFFML>
<?xml version="1.0" encoding="UTF-8"?>
<!DOCTYPE ffml SYSTEM "Ffml.dtd">
<ffml version="1.0">
<forcefield name="MMFF" derivedFrom="MMFF" base="MMFF">
<atomTypes>
<atomType
name="N100"
element="N"
mass="14.007"
annotation=""/>
<atomType
name="C101"
element="C"
mass="12.011"
annotation=""/>
<atomType
name="O102"
element="O"
mass="16"
annotation=""/>
<atomType
name="H103"
element="H"
mass="1.008"
annotation=""/>
</atomTypes>
<parameters>
</parameters>
</forcefield>
</ffml>

> <Initial Potential Energy>
141.83908

> <Initial RMS Gradient>
25.15058

> <Minimization Criteria>
CONJUG> Minimization exiting with gradient tolerance ( 0.0100000) satisfied.

> <CHARMm Energy>
-8.70901

> <Potential Energy>
-8.70901

> <RMS Gradient>
0.00975

> <Bond Energy>
12.97134

> <Angle Energy>
27.94249

> <STRBend>
1.32021

> <Dihedral Energy>
-3.25023

> <OOPLane>
0.65343

> <Van der Waals Energy>
68.23784

> <Electrostatic Energy>
-116.58409

> <Hydrogen Bond Energy>
0

> <Solvation Free Energy>
0

> <HasGasteigerCharges>
true

> <REMARK99>
REMARK  99  MacroMolecule created from Mol2 file
REMARK  99  CHEMBL4546437
REMARK  99  PROTEIN
REMARK  99  GASTEIGER
REMARK  99
REMARK  99

$$$$
CHEMBL3764848
  SciTegic05292516403D

 45 46  0  0  0  0            999 V2000
   -0.4511   -2.8750    1.8019 F   0  0
   -0.4887   -1.5223    1.9434 C   0  0
    0.6217   -1.1883    2.6571 F   0  0
    0.3800    0.1267    0.2476 C   0  0
    0.3349    0.7944   -0.9770 C   0  0
   -0.7040    0.5480   -1.8629 C   0  0
   -1.7099   -0.3477   -1.5102 C   0  0
   -1.6994   -1.0127   -0.2647 C   0  0
   -0.6177   -0.7956    0.6177 C   0  0
   -2.8663   -1.9260    0.0570 C   0  0
   -4.1090   -1.2110   -0.0645 N   0  0
   -1.5509   -1.2517    2.7570 F   0  0
   -5.2488   -1.8136   -0.5375 C   0  0
   -6.4033   -0.9026   -0.7058 C   0  0
   -5.3499   -3.0049   -0.7948 O   0  0
   -7.6808   -1.3601   -0.3757 C   0  0
   -8.7677   -0.4904   -0.4619 C   0  0
   -8.5773    0.8267   -0.8943 C   0  0
   -7.3044    1.2654   -1.2738 C   0  0
   -6.2166    0.4019   -1.1806 C   0  0
   -9.6895    1.7705   -0.8830 C   0  0
   -9.8735    2.6503    0.1196 C   0  0
  -11.0479    3.5359    0.0073 C   0  0
   -9.0847    2.7718    1.3971 C   0  0
   -8.2084    4.0169    1.4054 C   0  0
  -11.0404    4.2655   -1.1301 O   0  0
  -11.9136    3.6223    0.8596 O   0  0
    1.2185    0.3231    0.9159 H   0  0
    1.1310    1.4868   -1.2451 H   0  0
   -0.7291    1.0494   -2.8274 H   0  0
   -2.5314   -0.5184   -2.2071 H   0  0
   -2.8467   -2.7864   -0.6218 H   0  0
   -2.8274   -2.3136    1.0774 H   0  0
   -4.1416   -0.2597    0.2764 H   0  0
   -7.8241   -2.3802   -0.0255 H   0  0
   -9.7532   -0.8406   -0.1628 H   0  0
   -7.1485    2.2832   -1.6235 H   0  0
   -5.2332    0.7517   -1.4828 H   0  0
  -10.3759    1.7061   -1.7274 H   0  0
   -9.7694    2.8054    2.2533 H   0  0
   -8.4516    1.8933    1.5624 H   0  0
   -7.6407    4.0707    2.3399 H   0  0
   -8.8096    4.9288    1.3255 H   0  0
   -7.4936    4.0055    0.5759 H   0  0
  -10.2076    4.1569   -1.6299 H   0  0
  2  1  1  0
  2 12  1  0
  3  2  1  0
  4  5  2  0
  4 28  1  0
  5  6  1  0
  5 29  1  0
  6  7  2  0
  6 30  1  0
  7  8  1  0
  7 31  1  0
  8  9  2  0
  8 10  1  0
  9  2  1  0
  9  4  1  0
 10 11  1  0
 10 32  1  0
 10 33  1  0
 11 13  1  0
 11 34  1  0
 13 14  1  0
 13 15  2  0
 14 16  2  0
 16 17  1  0
 16 35  1  0
 17 18  2  0
 17 36  1  0
 18 19  1  0
 18 21  1  0
 19 20  2  0
 19 37  1  0
 20 14  1  0
 20 38  1  0
 21 22  2  0
 21 39  1  0
 22 23  1  0
 22 24  1  0
 23 26  1  0
 23 27  2  0
 24 25  1  0
 24 40  1  0
 24 41  1  0
 25 42  1  0
 25 43  1  0
 25 44  1  0
 26 45  1  0
M  END
> <Name>
CHEMBL3764848

> <Clean Energy>
27.3195

> <chembl_id>
CHEMBL3764848

> <chembl_pref_name>
None

> <efficacy>
1.111111111

> <Forcefield>
MMFF

> <ForcefieldBase>
MMFF

> <ForcefieldFFML>
<?xml version="1.0" encoding="UTF-8"?>
<!DOCTYPE ffml SYSTEM "Ffml.dtd">
<ffml version="1.0">
<forcefield name="MMFF" derivedFrom="MMFF" base="MMFF">
<atomTypes>
<atomType
name="F100"
element="F"
mass="18.998"
annotation=""/>
<atomType
name="C101"
element="C"
mass="12.011"
annotation=""/>
<atomType
name="N102"
element="N"
mass="14.007"
annotation=""/>
<atomType
name="O103"
element="O"
mass="16"
annotation=""/>
<atomType
name="H104"
element="H"
mass="1.008"
annotation=""/>
</atomTypes>
<parameters>
</parameters>
</forcefield>
</ffml>

> <Initial Potential Energy>
90.66543

> <Initial RMS Gradient>
28.10251

> <Minimization Criteria>
STEEPD> Minimization exiting with gradient tolerance ( 3.0000000) satisfied.

> <CHARMm Energy>
19.08786

> <Potential Energy>
19.08786

> <RMS Gradient>
0.03197

> <Bond Energy>
4.52058

> <Angle Energy>
4.68199

> <STRBend>
0.50674

> <Dihedral Energy>
9.42904

> <OOPLane>
0.09482

> <Van der Waals Energy>
46.36968

> <Electrostatic Energy>
-46.515

> <Hydrogen Bond Energy>
0

> <Solvation Free Energy>
0

> <HasGasteigerCharges>
true

> <REMARK99>
REMARK  99  MacroMolecule created from Mol2 file
REMARK  99  CHEMBL3764848
REMARK  99  PROTEIN
REMARK  99  GASTEIGER
REMARK  99
REMARK  99

$$$$
CHEMBL4472191
  SciTegic05292516403D

 79 82  0  0  0  0            999 V2000
    4.1761  -11.9507    0.2298 N   0  0
    4.0962  -13.2118    0.5171 C   0  0
    5.1024  -13.9182    1.1555 N   0  0
    6.1430  -13.1946    1.7087 C   0  0
    6.3572  -11.8235    1.1798 C   0  0
    5.3521  -11.2857    0.4667 C   0  0
    5.4169   -9.9056   -0.1840 C   0  0
    5.1177   -9.9730   -1.6866 C   0  0
    4.4625   -8.9314    0.5111 C   0  0
    6.8845  -13.6340    2.5880 O   0  0
    7.6961  -11.2254    1.5039 C   0  0
    8.7853  -11.8883    0.6791 C   0  0
    9.9454  -11.1724    0.7980 O   0  0
    8.6695  -12.9180    0.0223 O   0  0
    2.8191  -13.9574    0.1400 C   0  0
    1.7920  -13.1068   -0.6095 C   0  0
    0.5458  -13.9199   -0.9591 C   0  0
   -0.4757  -13.0793   -1.7087 C   0  0
    5.0072  -15.3493    1.5395 C   0  0
    6.0739  -16.3087    1.0028 C   0  0
    6.5800  -17.3318    1.8325 C   0  0
    7.5734  -18.2376    1.3928 C   0  0
    8.0982  -18.1641    0.0976 C   0  0
    7.5242  -17.1923   -0.7551 C   0  0
    6.5326  -16.2834   -0.3162 C   0  0
    9.3940  -18.8141   -0.2614 C   0  0
    9.6945  -20.1865   -0.4831 C   0  0
   11.0326  -20.5493   -0.8150 C   0  0
   12.0642  -19.6132   -0.8912 C   0  0
   11.7873  -18.2816   -0.6497 C   0  0
   10.4815  -17.8970   -0.3450 C   0  0
    8.7163  -21.3148   -0.4535 C   0  0
    7.4280  -21.2466   -0.5098 N   0  0
    6.9691  -22.6205   -0.5280 O   0  0
    8.0893  -23.4167   -0.4895 C   0  0
    9.1519  -22.5979   -0.3964 N   0  0
    8.1224  -24.6401   -0.5438 O   0  0
   11.0572  -11.7721    0.1164 C   0  0
   12.2978  -10.8915    0.3139 C   0  0
   13.5303  -11.5644   -0.2866 C   0  0
   12.0988   -9.5030   -0.2980 C   0  0
    6.4235   -9.4861   -0.0999 H   0  0
    5.2587   -8.9900   -2.1493 H   0  0
    4.0870  -10.2866   -1.8858 H   0  0
    5.7910  -10.6772   -2.1879 H   0  0
    4.5537   -7.9288    0.0792 H   0  0
    4.6908   -8.8555    1.5800 H   0  0
    3.4173   -9.2440    0.4094 H   0  0
    7.7222  -10.1500    1.3125 H   0  0
    7.9332  -11.3595    2.5654 H   0  0
    3.0976  -14.8158   -0.4827 H   0  0
    2.3666  -14.3404    1.0625 H   0  0
    1.5054  -12.2440    0.0047 H   0  0
    2.2405  -12.7091   -1.5285 H   0  0
    0.8241  -14.7819   -1.5764 H   0  0
    0.0872  -14.3107   -0.0434 H   0  0
   -1.3588  -13.6800   -1.9477 H   0  0
   -0.0587  -12.7001   -2.6472 H   0  0
   -0.7991  -12.2247   -1.1060 H   0  0
    5.0427  -15.3717    2.6370 H   0  0
    4.0391  -15.7704    1.2598 H   0  0
    6.2356  -17.4125    2.8627 H   0  0
    7.9829  -18.9498    2.1061 H   0  0
    7.9058  -17.0808   -1.7697 H   0  0
    6.1650  -15.5336   -1.0132 H   0  0
   11.3130  -21.5729   -1.0534 H   0  0
   13.0744  -19.9294   -1.1453 H   0  0
   12.5757  -17.5351   -0.6999 H   0  0
   10.3002  -16.8364   -0.1538 H   0  0
   10.0709  -23.0060   -0.3349 H   0  0
   11.2391  -12.7680    0.5385 H   0  0
   10.8261  -11.8681   -0.9519 H   0  0
   12.4607  -10.7553    1.3907 H   0  0
   14.4252  -10.9547   -0.1229 H   0  0
   13.4154  -11.7149   -1.3654 H   0  0
   13.7035  -12.5420    0.1756 H   0  0
   12.9899   -8.8836   -0.1507 H   0  0
   11.2547   -8.9828    0.1664 H   0  0
   11.9064   -9.5680   -1.3744 H   0  0
  1  2  2  0
  1  6  1  0
  2  3  1  0
  2 15  1  0
  3  4  1  0
  3 19  1  0
  4  5  1  0
  4 10  2  0
  5  6  2  0
  5 11  1  0
  6  7  1  0
  7  8  1  0
  7  9  1  0
  7 42  1  0
  8 43  1  0
  8 44  1  0
  8 45  1  0
  9 46  1  0
  9 47  1  0
  9 48  1  0
 11 12  1  0
 11 49  1  0
 11 50  1  0
 12 13  1  0
 12 14  2  0
 13 38  1  0
 15 16  1  0
 15 51  1  0
 15 52  1  0
 16 17  1  0
 16 53  1  0
 16 54  1  0
 17 18  1  0
 17 55  1  0
 17 56  1  0
 18 57  1  0
 18 58  1  0
 18 59  1  0
 19 20  1  0
 19 60  1  0
 19 61  1  0
 20 21  2  0
 21 22  1  0
 21 62  1  0
 22 23  2  0
 22 63  1  0
 23 24  1  0
 23 26  1  0
 24 25  2  0
 24 64  1  0
 25 20  1  0
 25 65  1  0
 26 27  2  0
 27 28  1  0
 27 32  1  0
 28 29  2  0
 28 66  1  0
 29 30  1  0
 29 67  1  0
 30 31  2  0
 30 68  1  0
 31 26  1  0
 31 69  1  0
 32 33  2  0
 33 34  1  0
 34 35  1  0
 35 36  1  0
 35 37  2  0
 36 32  1  0
 36 70  1  0
 38 39  1  0
 38 71  1  0
 38 72  1  0
 39 40  1  0
 39 41  1  0
 39 73  1  0
 40 74  1  0
 40 75  1  0
 40 76  1  0
 41 77  1  0
 41 78  1  0
 41 79  1  0
M  END
> <Name>
CHEMBL4472191

> <Clean Energy>
55.985199

> <chembl_id>
CHEMBL4472191

> <chembl_pref_name>
None

> <efficacy>
1.215574549

> <Forcefield>
MMFF

> <ForcefieldBase>
MMFF

> <ForcefieldFFML>
<?xml version="1.0" encoding="UTF-8"?>
<!DOCTYPE ffml SYSTEM "Ffml.dtd">
<ffml version="1.0">
<forcefield name="MMFF" derivedFrom="MMFF" base="MMFF">
<atomTypes>
<atomType
name="N100"
element="N"
mass="14.007"
annotation=""/>
<atomType
name="C101"
element="C"
mass="12.011"
annotation=""/>
<atomType
name="O102"
element="O"
mass="16"
annotation=""/>
<atomType
name="H103"
element="H"
mass="1.008"
annotation=""/>
</atomTypes>
<parameters>
</parameters>
</forcefield>
</ffml>

> <Initial Potential Energy>
165.82781

> <Initial RMS Gradient>
25.63409

> <Minimization Criteria>
STEEPD> Minimization exiting with gradient tolerance ( 3.0000000) satisfied.

> <CHARMm Energy>
-4.51038

> <Potential Energy>
-4.51038

> <RMS Gradient>
0.0326

> <Bond Energy>
13.4504

> <Angle Energy>
28.29657

> <STRBend>
1.3335

> <Dihedral Energy>
-3.4418

> <OOPLane>
0.65376

> <Van der Waals Energy>
71.75766

> <Electrostatic Energy>
-116.56049

> <Hydrogen Bond Energy>
0

> <Solvation Free Energy>
0

> <HasGasteigerCharges>
true

> <REMARK99>
REMARK  99  MacroMolecule created from Mol2 file
REMARK  99  CHEMBL4472191
REMARK  99  PROTEIN
REMARK  99  GASTEIGER
REMARK  99
REMARK  99

$$$$
CHEMBL3765679
  SciTegic05292516403D

 61 63  0  0  0  0            999 V2000
    2.1817    1.2872    0.0672 O   0  0
    1.2245   -0.4715   -1.1741 C   0  0
    1.0444    0.6051   -0.3052 C   0  0
   -0.2284    0.8905    0.1943 C   0  0
   -1.3266    0.1232   -0.2072 C   0  0
   -1.1598   -0.9430   -1.1008 C   0  0
    0.1289   -1.2399   -1.5720 C   0  0
   -2.3346   -1.7814   -1.5366 C   0  0
   -2.3306   -3.0763   -0.8934 N   0  0
   -3.2453   -4.0439   -1.2582 C   0  0
   -3.2019   -5.3483   -0.5296 C   0  0
   -4.0667   -3.8800   -2.1562 O   0  0
   -2.6135   -5.4975    0.7309 C   0  0
   -2.6319   -6.7398    1.3756 C   0  0
   -3.2509   -7.8477    0.7803 C   0  0
   -3.8426   -7.6990   -0.4787 C   0  0
   -3.8193   -6.4585   -1.1253 C   0  0
   -3.2852   -9.1820    1.4929 C   0  0
   -2.1988  -10.1531    0.9804 C   0  0  2  0  0  0
   -2.8158  -11.2670    0.1436 C   0  0
   -1.4106  -10.7900    2.1427 C   0  0
   -0.4730   -9.8083    2.8334 C   0  0
   -1.8394  -11.9662   -0.5078 O   0  0
   -4.0071  -11.5397    0.0835 O   0  0
   -2.3074  -13.1219   -1.2214 C   0  0
   -1.1082  -13.8078   -1.8455 C   0  0
    2.0823    2.6473    0.2419 C   0  0
    2.5408    3.1735    1.4504 C   0  0
    2.5015    4.5506    1.6663 C   0  0
    2.0127    5.3953    0.6685 C   0  0
    1.5789    4.8704   -0.5497 C   0  0
    1.6204    3.4933   -0.7687 C   0  0
    2.2199   -0.6974   -1.5492 H   0  0
   -0.3777    1.7088    0.8947 H   0  0
   -2.3120    0.3783    0.1786 H   0  0
    0.2785   -2.0796   -2.2496 H   0  0
   -3.2831   -1.2866   -1.2967 H   0  0
   -2.3129   -1.9209   -2.6241 H   0  0
   -1.6174   -3.2660   -0.2059 H   0  0
   -2.1627   -4.6577    1.2496 H   0  0
   -2.1766   -6.8306    2.3599 H   0  0
   -4.3405   -8.5411   -0.9580 H   0  0
   -4.2984   -6.3596   -2.0982 H   0  0
   -3.1700   -8.9968    2.5680 H   0  0
   -4.2982   -9.5908    1.3980 H   0  0
   -1.4986   -9.6202    0.3226 H   0  0
   -2.1042  -11.2164    2.8783 H   0  0
   -0.8047  -11.6278    1.7765 H   0  0
    0.1062  -10.3243    3.6059 H   0  0
   -1.0197   -8.9950    3.3181 H   0  0
    0.2317   -9.3719    2.1185 H   0  0
   -2.8075  -13.8068   -0.5276 H   0  0
   -3.0068  -12.8105   -2.0051 H   0  0
   -1.4136  -14.6982   -2.4020 H   0  0
   -0.3883  -14.1019   -1.0745 H   0  0
   -0.5857  -13.1271   -2.5257 H   0  0
    2.9161    2.5044    2.2191 H   0  0
    2.8545    4.9688    2.6062 H   0  0
    1.9772    6.4682    0.8363 H   0  0
    1.2125    5.5336   -1.3295 H   0  0
    1.2974    3.0867   -1.7227 H   0  0
  1 27  1  0
  2  3  2  0
  2 33  1  0
  3  1  1  0
  3  4  1  0
  4  5  2  0
  4 34  1  0
  5  6  1  0
  5 35  1  0
  6  7  2  0
  6  8  1  0
  7  2  1  0
  7 36  1  0
  8  9  1  0
  8 37  1  0
  8 38  1  0
  9 10  1  0
  9 39  1  0
 10 11  1  0
 10 12  2  0
 11 13  2  0
 13 14  1  0
 13 40  1  0
 14 15  2  0
 14 41  1  0
 15 16  1  0
 15 18  1  0
 16 17  2  0
 16 42  1  0
 17 11  1  0
 17 43  1  0
 18 19  1  0
 18 44  1  0
 18 45  1  0
 19 20  1  0
 19 21  1  0
 19 46  1  0
 20 23  1  0
 20 24  2  0
 21 22  1  0
 21 47  1  0
 21 48  1  0
 22 49  1  0
 22 50  1  0
 22 51  1  0
 23 25  1  0
 25 26  1  0
 25 52  1  0
 25 53  1  0
 26 54  1  0
 26 55  1  0
 26 56  1  0
 27 28  2  0
 28 29  1  0
 28 57  1  0
 29 30  2  0
 29 58  1  0
 30 31  1  0
 30 59  1  0
 31 32  2  0
 31 60  1  0
 32 27  1  0
 32 61  1  0
M  END
> <Name>
CHEMBL3765679

> <Clean Energy>
22.0413

> <chembl_id>
CHEMBL3765679

> <chembl_pref_name>
None

> <efficacy>
1.339031339

> <Forcefield>
MMFF

> <ForcefieldBase>
MMFF

> <ForcefieldFFML>
<?xml version="1.0" encoding="UTF-8"?>
<!DOCTYPE ffml SYSTEM "Ffml.dtd">
<ffml version="1.0">
<forcefield name="MMFF" derivedFrom="MMFF" base="MMFF">
<atomTypes>
<atomType
name="O100"
element="O"
mass="16"
annotation=""/>
<atomType
name="C101"
element="C"
mass="12.011"
annotation=""/>
<atomType
name="N102"
element="N"
mass="14.007"
annotation=""/>
<atomType
name="H103"
element="H"
mass="1.008"
annotation=""/>
</atomTypes>
<parameters>
</parameters>
</forcefield>
</ffml>

> <Initial Potential Energy>
168.35652

> <Initial RMS Gradient>
37.24883

> <Minimization Criteria>
CONJUG> Minimization exiting with gradient tolerance ( 0.0100000) satisfied.

> <CHARMm Energy>
36.27339

> <Potential Energy>
36.27339

> <RMS Gradient>
0.00911

> <Bond Energy>
6.41099

> <Angle Energy>
9.45437

> <STRBend>
0.84787

> <Dihedral Energy>
2.83399

> <OOPLane>
0.12945

> <Van der Waals Energy>
65.77954

> <Electrostatic Energy>
-49.18281

> <Hydrogen Bond Energy>
0

> <Solvation Free Energy>
0

> <HasGasteigerCharges>
true

> <REMARK99>
REMARK  99  MacroMolecule created from Mol2 file
REMARK  99  CHEMBL3765679
REMARK  99  PROTEIN
REMARK  99  GASTEIGER
REMARK  99
REMARK  99

$$$$
CHEMBL3764891
  SciTegic05292516403D

 44 45  0  0  0  0            999 V2000
    2.5010    0.9504   -0.8229 Cl  0  0
    1.0872   -0.8953    0.5553 C   0  0
    1.0551    0.1119   -0.4087 C   0  0
   -0.1435    0.4488   -1.0327 C   0  0
   -1.3234   -0.2122   -0.6778 C   0  0
   -1.3119   -1.2116    0.3059 C   0  0
   -0.0914   -1.5610    0.9061 C   0  0
   -2.5944   -1.8808    0.7280 C   0  0
   -2.7452   -3.1979    0.1782 N   0  0
   -3.9356   -3.8676    0.3598 C   0  0
   -3.9477   -5.2899   -0.0505 C   0  0
   -4.9175   -3.3726    0.9008 O   0  0
   -4.6771   -6.1873    0.7366 C   0  0
   -4.6139   -7.5530    0.4742 C   0  0
   -3.8216   -8.0275   -0.5793 C   0  0
   -3.1592   -7.1167   -1.4153 C   0  0
   -3.2178   -5.7489   -1.1506 C   0  0
   -3.6269   -9.5072   -0.7637 C   0  0
   -2.2131   -9.9885   -0.3833 C   0  0  2  0  0  0
   -2.1937  -11.4843   -0.6054 C   0  0
   -1.7493   -9.6592    1.0533 C   0  0
   -0.8651   -8.4216    1.1389 C   0  0
   -2.8619  -12.1892    0.3364 O   0  0
   -1.6659  -12.0203   -1.5675 O   0  0
    2.0256   -1.1405    1.0471 H   0  0
   -0.1697    1.2386   -1.7802 H   0  0
   -2.2554    0.0882   -1.1551 H   0  0
   -0.0601   -2.3485    1.6587 H   0  0
   -2.6280   -1.9584    1.8219 H   0  0
   -3.4586   -1.2721    0.4345 H   0  0
   -1.9321   -3.6679   -0.1934 H   0  0
   -5.2624   -5.8222    1.5782 H   0  0
   -5.1582   -8.2412    1.1184 H   0  0
   -2.5652   -7.4716   -2.2556 H   0  0
   -2.6880   -5.0584   -1.8005 H   0  0
   -4.3852  -10.0507   -0.1846 H   0  0
   -3.8359   -9.7591   -1.8125 H   0  0
   -1.4839   -9.5677   -1.0889 H   0  0
   -2.6100   -9.5380    1.7214 H   0  0
   -1.1621  -10.4937    1.4581 H   0  0
   -0.5110   -8.2871    2.1663 H   0  0
   -1.4008   -7.5138    0.8561 H   0  0
    0.0128   -8.5212    0.4927 H   0  0
   -3.2414  -11.6362    1.0458 H   0  0
  2  3  2  0
  2 25  1  0
  3  1  1  0
  3  4  1  0
  4  5  2  0
  4 26  1  0
  5  6  1  0
  5 27  1  0
  6  7  2  0
  6  8  1  0
  7  2  1  0
  7 28  1  0
  8  9  1  0
  8 29  1  0
  8 30  1  0
  9 10  1  0
  9 31  1  0
 10 11  1  0
 10 12  2  0
 11 13  2  0
 13 14  1  0
 13 32  1  0
 14 15  2  0
 14 33  1  0
 15 16  1  0
 15 18  1  0
 16 17  2  0
 16 34  1  0
 17 11  1  0
 17 35  1  0
 18 19  1  0
 18 36  1  0
 18 37  1  0
 19 20  1  0
 19 21  1  0
 19 38  1  0
 20 23  1  0
 20 24  2  0
 21 22  1  0
 21 39  1  0
 21 40  1  0
 22 41  1  0
 22 42  1  0
 22 43  1  0
 23 44  1  0
M  END
> <Name>
CHEMBL3764891

> <Clean Energy>
11.9911

> <chembl_id>
CHEMBL3764891

> <chembl_pref_name>
None

> <efficacy>
1.623931624

> <Forcefield>
MMFF

> <ForcefieldBase>
MMFF

> <ForcefieldFFML>
<?xml version="1.0" encoding="UTF-8"?>
<!DOCTYPE ffml SYSTEM "Ffml.dtd">
<ffml version="1.0">
<forcefield name="MMFF" derivedFrom="MMFF" base="MMFF">
<atomTypes>
<atomType
name="Cl100"
element="Cl"
mass="35.453"
annotation=""/>
<atomType
name="C101"
element="C"
mass="12.011"
annotation=""/>
<atomType
name="N102"
element="N"
mass="14.007"
annotation=""/>
<atomType
name="O103"
element="O"
mass="16"
annotation=""/>
<atomType
name="H104"
element="H"
mass="1.008"
annotation=""/>
</atomTypes>
<parameters>
</parameters>
</forcefield>
</ffml>

> <Initial Potential Energy>
68.00754

> <Initial RMS Gradient>
27.73232

> <Minimization Criteria>
CONJUG> Minimization exiting with gradient tolerance ( 0.0100000) satisfied.

> <CHARMm Energy>
6.90699

> <Potential Energy>
6.90699

> <RMS Gradient>
0.00785

> <Bond Energy>
4.22976

> <Angle Energy>
5.04353

> <STRBend>
0.56498

> <Dihedral Energy>
-0.35411

> <OOPLane>
0.28381

> <Van der Waals Energy>
45.11885

> <Electrostatic Energy>
-47.97983

> <Hydrogen Bond Energy>
0

> <Solvation Free Energy>
0

> <HasGasteigerCharges>
true

> <REMARK99>
REMARK  99  MacroMolecule created from Mol2 file
REMARK  99  CHEMBL3764891
REMARK  99  PROTEIN
REMARK  99  GASTEIGER
REMARK  99
REMARK  99

$$$$
CHEMBL3764076
  SciTegic05292516403D

 55 57  0  0  0  0            999 V2000
    1.9445    1.1080   -1.0325 O   0  0
    0.0525   -0.1388   -1.6827 C   0  0
    0.7215    0.5764   -0.6910 C   0  0
    0.1824    0.6643    0.5946 C   0  0
   -1.0420    0.0544    0.8807 C   0  0
   -1.7295   -0.6586   -0.1117 C   0  0
   -1.1711   -0.7463   -1.3975 C   0  0
   -3.0371   -1.3422    0.1933 C   0  0
   -2.9090   -2.7734    0.0901 N   0  0
   -4.0158   -3.5906    0.1429 C   0  0
   -3.7620   -5.0446   -0.0347 C   0  0
   -5.1568   -3.1888    0.3418 O   0  0
   -4.6148   -5.9580    0.5948 C   0  0
   -4.4087   -7.3319    0.4451 C   0  0
   -3.3478   -7.8062   -0.3372 C   0  0
   -2.5206   -6.8850   -0.9963 C   0  0
   -2.7234   -5.5128   -0.8459 C   0  0
   -3.1193   -9.2876   -0.5107 C   0  0
   -1.7491   -9.7778   -0.0094 C   0  0  2  0  0  0
   -1.3493  -10.9714   -0.8502 C   0  0
   -1.6927  -10.1148    1.4907 C   0  0
   -1.5485   -8.8912    2.3835 C   0  0
   -2.0361  -12.1034   -0.5977 O   0  0
   -0.4991  -10.9225   -1.7276 O   0  0
    2.2254    2.3759   -0.5800 C   0  0
    3.4338    2.5633    0.0917 C   0  0
    3.7831    3.8338    0.5465 C   0  0
    2.9281    4.9130    0.3160 C   0  0
    1.7320    4.7294   -0.3791 C   0  0
    1.3812    3.4590   -0.8354 C   0  0
    0.4831   -0.2142   -2.6781 H   0  0
    0.7087    1.2039    1.3788 H   0  0
   -1.4512    0.1419    1.8853 H   0  0
   -1.6872   -1.2982   -2.1812 H   0  0
   -3.3814   -1.1085    1.2074 H   0  0
   -3.8121   -0.9963   -0.5010 H   0  0
   -1.9810   -3.1725    0.0639 H   0  0
   -5.4435   -5.6007    1.2033 H   0  0
   -5.0840   -8.0243    0.9442 H   0  0
   -1.7176   -7.2320   -1.6450 H   0  0
   -2.0823   -4.8254   -1.3908 H   0  0
   -3.9191   -9.8530   -0.0149 H   0  0
   -3.2368   -9.5028   -1.5821 H   0  0
   -0.9746   -9.0253   -0.2088 H   0  0
   -2.5836  -10.6760    1.7966 H   0  0
   -0.8352  -10.7728    1.6816 H   0  0
   -1.4017   -9.2028    3.4229 H   0  0
   -2.4414   -8.2632    2.3541 H   0  0
   -0.6856   -8.2860    2.0882 H   0  0
   -2.6803  -12.0877    0.1331 H   0  0
    4.0870    1.7141    0.2685 H   0  0
    4.7197    3.9870    1.0775 H   0  0
    3.1962    5.9031    0.6741 H   0  0
    1.0744    5.5747   -0.5658 H   0  0
    0.4558    3.3180   -1.3866 H   0  0
  1 25  1  0
  2  3  2  0
  2 31  1  0
  3  1  1  0
  3  4  1  0
  4  5  2  0
  4 32  1  0
  5  6  1  0
  5 33  1  0
  6  7  2  0
  6  8  1  0
  7  2  1  0
  7 34  1  0
  8  9  1  0
  8 35  1  0
  8 36  1  0
  9 10  1  0
  9 37  1  0
 10 11  1  0
 10 12  2  0
 11 13  2  0
 13 14  1  0
 13 38  1  0
 14 15  2  0
 14 39  1  0
 15 16  1  0
 15 18  1  0
 16 17  2  0
 16 40  1  0
 17 11  1  0
 17 41  1  0
 18 19  1  0
 18 42  1  0
 18 43  1  0
 19 20  1  0
 19 21  1  0
 19 44  1  0
 20 23  1  0
 20 24  2  0
 21 22  1  0
 21 45  1  0
 21 46  1  0
 22 47  1  0
 22 48  1  0
 22 49  1  0
 23 50  1  0
 25 26  2  0
 26 27  1  0
 26 51  1  0
 27 28  2  0
 27 52  1  0
 28 29  1  0
 28 53  1  0
 29 30  2  0
 29 54  1  0
 30 25  1  0
 30 55  1  0
M  END
> <Name>
CHEMBL3764076

> <Clean Energy>
22.003201

> <chembl_id>
CHEMBL3764076

> <chembl_pref_name>
None

> <efficacy>
1.718898386

> <Forcefield>
MMFF

> <ForcefieldBase>
MMFF

> <ForcefieldFFML>
<?xml version="1.0" encoding="UTF-8"?>
<!DOCTYPE ffml SYSTEM "Ffml.dtd">
<ffml version="1.0">
<forcefield name="MMFF" derivedFrom="MMFF" base="MMFF">
<atomTypes>
<atomType
name="O100"
element="O"
mass="16"
annotation=""/>
<atomType
name="C101"
element="C"
mass="12.011"
annotation=""/>
<atomType
name="N102"
element="N"
mass="14.007"
annotation=""/>
<atomType
name="H103"
element="H"
mass="1.008"
annotation=""/>
</atomTypes>
<parameters>
</parameters>
</forcefield>
</ffml>

> <Initial Potential Energy>
173.32509

> <Initial RMS Gradient>
40.41842

> <Minimization Criteria>
STEEPD> Minimization exiting with gradient tolerance ( 3.0000000) satisfied.

> <CHARMm Energy>
33.11386

> <Potential Energy>
33.11386

> <RMS Gradient>
0.04697

> <Bond Energy>
5.43609

> <Angle Energy>
9.3554

> <STRBend>
0.68431

> <Dihedral Energy>
5.06753

> <OOPLane>
0.1431

> <Van der Waals Energy>
61.46427

> <Electrostatic Energy>
-49.03683

> <Hydrogen Bond Energy>
0

> <Solvation Free Energy>
0

> <HasGasteigerCharges>
true

> <REMARK99>
REMARK  99  MacroMolecule created from Mol2 file
REMARK  99  CHEMBL3764076
REMARK  99  PROTEIN
REMARK  99  GASTEIGER
REMARK  99
REMARK  99

$$$$
CHEMBL3335654
  SciTegic05292516403D

 61 63  0  0  0  0            999 V2000
    5.9959  -11.4362    0.9100 C   0  0
    5.7815  -12.7729    1.2346 C   0  0
    6.7634  -13.7391    0.9807 C   0  0
    7.9914  -13.3814    0.4093 C   0  0
    8.2014  -12.0199    0.0968 C   0  0
    7.2049  -11.0584    0.3377 C   0  0
    9.4402  -11.5340   -0.5645 C   0  0
   10.6216  -11.9278    0.0441 N   0  0
    9.3218  -10.8298   -1.5591 O   0  0
   11.9311  -11.7182   -0.4470 C   0  0
    9.0015  -14.3307    0.1078 N   0  0
    9.0012  -15.6882    0.3726 C   0  0
   10.2448  -16.3966   -0.0472 C   0  0
    8.1172  -16.3282    0.9310 O   0  0
   10.7430  -17.4133    0.7682 C   0  0
   11.9248  -18.0767    0.4213 C   0  0
   12.6376  -17.7475   -0.7491 C   0  0
   12.1059  -16.7349   -1.5658 C   0  0
   10.9215  -16.0691   -1.2253 C   0  0
   13.9396  -18.4946   -1.0944 C   0  0
   13.6461  -20.0013   -1.2586 C   0  0
   14.6083  -18.0132   -2.4019 C   0  0
   14.9671  -18.2975    0.0413 C   0  0
   13.0072  -12.0498    0.3909 C   0  0
   14.3360  -11.8502   -0.0256 C   0  0
   14.5792  -11.3364   -1.3046 C   0  0
   13.5176  -11.0252   -2.1485 C   0  0
   12.2014  -11.2122   -1.7205 C   0  0
   15.5022  -12.1245    0.8963 C   0  0
   15.6323  -11.0305    1.9547 C   0  0
   16.9976  -11.0289    2.5938 C   0  0
   16.9951  -10.5698    3.8702 O   0  0
   18.0403  -11.3295    2.0307 O   0  0
    5.2056  -10.7050    1.0802 H   0  0
    4.8254  -13.0771    1.6623 H   0  0
    6.5100  -14.7704    1.2175 H   0  0
    7.3897  -10.0176    0.0762 H   0  0
   10.5434  -12.3498    0.9635 H   0  0
    9.8288  -13.9625   -0.3498 H   0  0
   10.2193  -17.6890    1.6811 H   0  0
   12.2833  -18.8633    1.0836 H   0  0
   12.5935  -16.4411   -2.4922 H   0  0
   10.5359  -15.3162   -1.9083 H   0  0
   14.5519  -20.5522   -1.5379 H   0  0
   12.8962  -20.1742   -2.0396 H   0  0
   13.2688  -20.4533   -0.3348 H   0  0
   15.5323  -18.5693   -2.6012 H   0  0
   14.8762  -16.9514   -2.3507 H   0  0
   13.9525  -18.1591   -3.2682 H   0  0
   15.9177  -18.7894   -0.1958 H   0  0
   14.6196  -18.7155    0.9924 H   0  0
   15.1741  -17.2332    0.2056 H   0  0
   12.8209  -12.4489    1.3849 H   0  0
   15.5984  -11.1679   -1.6506 H   0  0
   13.7114  -10.6263   -3.1416 H   0  0
   11.4081  -10.9527   -2.4148 H   0  0
   15.3664  -13.1016    1.3770 H   0  0
   16.4205  -12.2137    0.3026 H   0  0
   15.4816  -10.0341    1.5225 H   0  0
   14.8629  -11.1851    2.7200 H   0  0
   16.0923  -10.3839    4.1969 H   0  0
  1  2  2  0
  1 34  1  0
  2  3  1  0
  2 35  1  0
  3  4  2  0
  3 36  1  0
  4  5  1  0
  4 11  1  0
  5  6  2  0
  5  7  1  0
  6  1  1  0
  6 37  1  0
  7  8  1  0
  7  9  2  0
  8 10  1  0
  8 38  1  0
 10 24  2  0
 11 12  1  0
 11 39  1  0
 12 13  1  0
 12 14  2  0
 13 15  2  0
 15 16  1  0
 15 40  1  0
 16 17  2  0
 16 41  1  0
 17 18  1  0
 17 20  1  0
 18 19  2  0
 18 42  1  0
 19 13  1  0
 19 43  1  0
 20 21  1  0
 20 22  1  0
 20 23  1  0
 21 44  1  0
 21 45  1  0
 21 46  1  0
 22 47  1  0
 22 48  1  0
 22 49  1  0
 23 50  1  0
 23 51  1  0
 23 52  1  0
 24 25  1  0
 24 53  1  0
 25 26  2  0
 25 29  1  0
 26 27  1  0
 26 54  1  0
 27 28  2  0
 27 55  1  0
 28 10  1  0
 28 56  1  0
 29 30  1  0
 29 57  1  0
 29 58  1  0
 30 31  1  0
 30 59  1  0
 30 60  1  0
 31 32  1  0
 31 33  2  0
 32 61  1  0
M  END
> <Name>
CHEMBL3335654

> <Clean Energy>
11.7717

> <chembl_id>
CHEMBL3335654

> <chembl_pref_name>
None

> <efficacy>
1.661918329

> <Forcefield>
MMFF

> <ForcefieldBase>
MMFF

> <ForcefieldFFML>
<?xml version="1.0" encoding="UTF-8"?>
<!DOCTYPE ffml SYSTEM "Ffml.dtd">
<ffml version="1.0">
<forcefield name="MMFF" derivedFrom="MMFF" base="MMFF">
<atomTypes>
<atomType
name="C100"
element="C"
mass="12.011"
annotation=""/>
<atomType
name="N101"
element="N"
mass="14.007"
annotation=""/>
<atomType
name="O102"
element="O"
mass="16"
annotation=""/>
<atomType
name="H103"
element="H"
mass="1.008"
annotation=""/>
</atomTypes>
<parameters>
</parameters>
</forcefield>
</ffml>

> <Initial Potential Energy>
255.22925

> <Initial RMS Gradient>
79.70303

> <Minimization Criteria>
CONJUG> Minimization exiting with gradient tolerance ( 0.0100000) satisfied.

> <CHARMm Energy>
45.57836

> <Potential Energy>
45.57836

> <RMS Gradient>
0.00761

> <Bond Energy>
8.75452

> <Angle Energy>
11.08531

> <STRBend>
1.85085

> <Dihedral Energy>
8.8921

> <OOPLane>
0.1995

> <Van der Waals Energy>
74.76476

> <Electrostatic Energy>
-59.96868

> <Hydrogen Bond Energy>
0

> <Solvation Free Energy>
0

> <HasGasteigerCharges>
true

> <REMARK99>
REMARK  99  MacroMolecule created from Mol2 file
REMARK  99  CHEMBL3335654
REMARK  99  PROTEIN
REMARK  99  GASTEIGER
REMARK  99
REMARK  99

$$$$
CHEMBL3335659
  SciTegic05292516403D

 55 57  0  0  0  0            999 V2000
    6.1498  -11.8493    0.4980 C   0  0
    5.9001  -13.1856    0.8082 C   0  0
    6.8855  -14.1599    0.6051 C   0  0
    8.1324  -13.8113    0.0801 C   0  0
    8.3753  -12.4525   -0.2170 C   0  0
    7.3906  -11.4757   -0.0120 C   0  0
    9.7274  -12.0290   -0.6593 C   0  0
   10.3178  -11.0767    0.1518 N   0  0
   10.2895  -12.6535   -1.5530 O   0  0
   11.6362  -10.6081   -0.0351 C   0  0
    9.1716  -14.7489   -0.1397 N   0  0
    9.2630  -16.0466    0.3214 C   0  0
   10.5677  -16.7379    0.0617 C   0  0
    8.3905  -16.6524    0.9340 O   0  0
   10.6064  -18.1324    0.1398 C   0  0
   11.8075  -18.8230   -0.0590 C   0  0
   13.0104  -18.1474   -0.3373 C   0  0
   12.9575  -16.7467   -0.4016 C   0  0
   11.7580  -16.0489   -0.1984 C   0  0
   14.3114  -18.9424   -0.5491 C   0  0
   14.1515  -19.8785   -1.7660 C   0  0
   15.5493  -18.0552   -0.8130 C   0  0
   14.6176  -19.7885    0.7059 C   0  0
   12.4499  -10.6026    1.1031 C   0  0
   13.8010  -10.2453    1.0105 C   0  0
   14.3282   -9.7951   -0.2027 C   0  0
   13.5058   -9.7480   -1.3320 C   0  0
   12.1673  -10.1625   -1.2584 C   0  0
   14.6198  -10.3684    2.2368 C   0  0
   15.8724  -10.8056    2.0119 O   0  0
   14.1650  -10.1692    3.3493 O   0  0
   11.1990   -9.9311   -2.6720 Cl  0  0
    5.3759  -11.1018    0.6576 H   0  0
    4.9298  -13.4784    1.2076 H   0  0
    6.6404  -15.1895    0.8513 H   0  0
    7.5803  -10.4316   -0.2516 H   0  0
    9.9048  -10.9555    1.0709 H   0  0
    9.9342  -14.3952   -0.7142 H   0  0
    9.7012  -18.6936    0.3651 H   0  0
   11.7897  -19.9079    0.0163 H   0  0
   13.8478  -16.1564   -0.6013 H   0  0
   11.7993  -14.9640   -0.2245 H   0  0
   15.0750  -20.4366   -1.9593 H   0  0
   13.9094  -19.3102   -2.6719 H   0  0
   13.3553  -20.6166   -1.6191 H   0  0
   16.4495  -18.6653   -0.9544 H   0  0
   15.7469  -17.3788    0.0268 H   0  0
   15.4263  -17.4493   -1.7183 H   0  0
   15.5636  -20.3315    0.5954 H   0  0
   13.8416  -20.5364    0.9020 H   0  0
   14.6980  -19.1560    1.5979 H   0  0
   12.0581  -10.9397    2.0621 H   0  0
   15.3545   -9.4400   -0.2787 H   0  0
   13.9062   -9.3596   -2.2678 H   0  0
   16.1018  -11.0524    1.0970 H   0  0
  1  2  2  0
  1 33  1  0
  2  3  1  0
  2 34  1  0
  3  4  2  0
  3 35  1  0
  4  5  1  0
  4 11  1  0
  5  6  2  0
  5  7  1  0
  6  1  1  0
  6 36  1  0
  7  8  1  0
  7  9  2  0
  8 10  1  0
  8 37  1  0
 10 24  2  0
 11 12  1  0
 11 38  1  0
 12 13  1  0
 12 14  2  0
 13 15  2  0
 15 16  1  0
 15 39  1  0
 16 17  2  0
 16 40  1  0
 17 18  1  0
 17 20  1  0
 18 19  2  0
 18 41  1  0
 19 13  1  0
 19 42  1  0
 20 21  1  0
 20 22  1  0
 20 23  1  0
 21 43  1  0
 21 44  1  0
 21 45  1  0
 22 46  1  0
 22 47  1  0
 22 48  1  0
 23 49  1  0
 23 50  1  0
 23 51  1  0
 24 25  1  0
 24 52  1  0
 25 26  2  0
 25 29  1  0
 26 27  1  0
 26 53  1  0
 27 28  2  0
 27 54  1  0
 28 10  1  0
 28 32  1  0
 29 30  1  0
 29 31  2  0
 30 55  1  0
M  END
> <Name>
CHEMBL3335659

> <Clean Energy>
19.381599

> <chembl_id>
CHEMBL3335659

> <chembl_pref_name>
None

> <efficacy>
1.462488129

> <Forcefield>
MMFF

> <ForcefieldBase>
MMFF

> <ForcefieldFFML>
<?xml version="1.0" encoding="UTF-8"?>
<!DOCTYPE ffml SYSTEM "Ffml.dtd">
<ffml version="1.0">
<forcefield name="MMFF" derivedFrom="MMFF" base="MMFF">
<atomTypes>
<atomType
name="C100"
element="C"
mass="12.011"
annotation=""/>
<atomType
name="N101"
element="N"
mass="14.007"
annotation=""/>
<atomType
name="O102"
element="O"
mass="16"
annotation=""/>
<atomType
name="Cl103"
element="Cl"
mass="35.453"
annotation=""/>
<atomType
name="H104"
element="H"
mass="1.008"
annotation=""/>
</atomTypes>
<parameters>
</parameters>
</forcefield>
</ffml>

> <Initial Potential Energy>
239.5963

> <Initial RMS Gradient>
47.02366

> <Minimization Criteria>
STEEPD> Minimization exiting with gradient tolerance ( 3.0000000) satisfied.

> <CHARMm Energy>
99.30703

> <Potential Energy>
99.30703

> <RMS Gradient>
0.02817

> <Bond Energy>
8.62282

> <Angle Energy>
13.65084

> <STRBend>
1.91532

> <Dihedral Energy>
25.11987

> <OOPLane>
1.24553

> <Van der Waals Energy>
74.7304

> <Electrostatic Energy>
-25.97775

> <Hydrogen Bond Energy>
0

> <Solvation Free Energy>
0

> <HasGasteigerCharges>
true

> <REMARK99>
REMARK  99  MacroMolecule created from Mol2 file
REMARK  99  CHEMBL3335659
REMARK  99  PROTEIN
REMARK  99  GASTEIGER
REMARK  99
REMARK  99

$$$$
CHEMBL396109
  SciTegic05292516403D

 48 49  0  0  0  0            999 V2000
   -7.9616  -14.3494    1.1121 C   0  0
   -8.5248  -14.7237   -0.1054 C   0  0
   -8.0192  -14.2048   -1.2951 C   0  0
   -6.9488  -13.3091   -1.2698 C   0  0
   -6.3706  -12.9210   -0.0509 C   0  0
   -6.8877  -13.4577    1.1398 C   0  0
   -5.1948  -11.9682    0.0030 C   0  0  1  0  0  0
   -3.8804  -12.6963   -0.2467 C   0  0
   -5.3523  -10.9131   -0.9467 O   0  0
   -2.6841  -11.7866    0.0394 C   0  0
   -1.4024  -12.5741   -0.0252 C   0  0
   -1.0527  -13.4282    1.0290 C   0  0
    0.0912  -14.2164    0.9473 C   0  0
    0.9051  -14.1550   -0.1885 C   0  0
    0.5697  -13.2846   -1.2329 C   0  0
   -0.5818  -12.5044   -1.1551 C   0  0
    2.1563  -14.9893   -0.2663 C   0  0
    3.3225  -14.2968    0.4347 C   0  0  1  0  0  0
    4.4648  -15.2989    0.4856 C   0  0
    5.3524  -15.0979   -0.5258 O   0  0
    4.5863  -16.1951    1.3068 O   0  0
    3.7664  -13.1738   -0.3632 O   0  0
    4.3577  -12.1481    0.4437 C   0  0
    4.8407  -11.0440   -0.4748 C   0  0
   -8.3662  -14.7494    2.0394 H   0  0
   -9.3628  -15.4161   -0.1269 H   0  0
   -8.4636  -14.4937   -2.2445 H   0  0
   -6.5788  -12.9098   -2.2123 H   0  0
   -6.4598  -13.1819    2.1012 H   0  0
   -5.1761  -11.4893    0.9896 H   0  0
   -3.8319  -13.5918    0.3867 H   0  0
   -3.8267  -13.0416   -1.2880 H   0  0
   -6.3025  -10.6877   -0.9696 H   0  0
   -2.6548  -10.9539   -0.6737 H   0  0
   -2.7697  -11.3351    1.0360 H   0  0
   -1.6829  -13.4963    1.9127 H   0  0
    0.3381  -14.8818    1.7715 H   0  0
    1.2060  -13.2094   -2.1128 H   0  0
   -0.8396  -11.8491   -1.9838 H   0  0
    1.9566  -15.9717    0.1811 H   0  0
    2.3979  -15.1798   -1.3206 H   0  0
    3.0724  -13.9773    1.4533 H   0  0
    5.0384  -14.3124   -1.0370 H   0  0
    3.6081  -11.7529    1.1380 H   0  0
    5.1992  -12.5576    1.0126 H   0  0
    5.2987  -10.2324    0.0974 H   0  0
    4.0090  -10.6385   -1.0605 H   0  0
    5.5744  -11.4311   -1.1895 H   0  0
  1  2  2  0
  1 25  1  0
  2  3  1  0
  2 26  1  0
  3  4  2  0
  3 27  1  0
  4  5  1  0
  4 28  1  0
  5  6  2  0
  5  7  1  0
  6  1  1  0
  6 29  1  0
  7  8  1  0
  7  9  1  0
  7 30  1  0
  8 10  1  0
  8 31  1  0
  8 32  1  0
  9 33  1  0
 10 11  1  0
 10 34  1  0
 10 35  1  0
 11 12  2  0
 12 13  1  0
 12 36  1  0
 13 14  2  0
 13 37  1  0
 14 15  1  0
 14 17  1  0
 15 16  2  0
 15 38  1  0
 16 11  1  0
 16 39  1  0
 17 18  1  0
 17 40  1  0
 17 41  1  0
 18 19  1  0
 18 22  1  0
 18 42  1  0
 19 20  1  0
 19 21  2  0
 20 43  1  0
 22 23  1  0
 23 24  1  0
 23 44  1  0
 23 45  1  0
 24 46  1  0
 24 47  1  0
 24 48  1  0
M  END
> <Name>
CHEMBL396109

> <Clean Energy>
16.3918

> <chembl_id>
CHEMBL396109

> <chembl_pref_name>
None

> <efficacy>
1.19

> <Forcefield>
MMFF

> <ForcefieldBase>
MMFF

> <ForcefieldFFML>
<?xml version="1.0" encoding="UTF-8"?>
<!DOCTYPE ffml SYSTEM "Ffml.dtd">
<ffml version="1.0">
<forcefield name="MMFF" derivedFrom="MMFF" base="MMFF">
<atomTypes>
<atomType
name="C100"
element="C"
mass="12.011"
annotation=""/>
<atomType
name="O101"
element="O"
mass="16"
annotation=""/>
<atomType
name="H102"
element="H"
mass="1.008"
annotation=""/>
</atomTypes>
<parameters>
</parameters>
</forcefield>
</ffml>

> <Initial Potential Energy>
126.19103

> <Initial RMS Gradient>
26.28541

> <Minimization Criteria>
CONJUG> Minimization exiting with gradient tolerance ( 0.0100000) satisfied.

> <CHARMm Energy>
53.46346

> <Potential Energy>
53.46346

> <RMS Gradient>
0.00972

> <Bond Energy>
4.27205

> <Angle Energy>
2.73192

> <STRBend>
0.4576

> <Dihedral Energy>
2.21798

> <OOPLane>
0.03441

> <Van der Waals Energy>
46.82387

> <Electrostatic Energy>
-3.07438

> <Hydrogen Bond Energy>
0

> <Solvation Free Energy>
0

> <HasGasteigerCharges>
true

> <REMARK99>
REMARK  99  MacroMolecule created from Mol2 file
REMARK  99  CHEMBL396109
REMARK  99  PROTEIN
REMARK  99  GASTEIGER
REMARK  99
REMARK  99

$$$$
CHEMBL2377523
  SciTegic05292516403D

 71 74  0  0  0  0            999 V2000
   27.8516   -7.3628    0.1218 C   0  0
   27.6969   -8.7239   -0.1974 C   0  0
   28.7164   -9.3547   -0.9314 C   0  0
   29.8698   -8.6625   -1.3019 C   0  0
   30.0211   -7.3223   -0.9373 C   0  0
   29.0024   -6.6619   -0.2503 C   0  0
   31.2635   -6.5857   -1.2654 C   0  0
   32.4141   -7.2863   -1.0201 N   0  0
   31.1911   -5.4426   -1.6963 O   0  0
   33.7381   -6.8062   -1.3305 C   0  0
   34.8611   -7.5132   -0.5829 C   0  0
   34.7803   -8.8140   -0.0425 C   0  0
   35.8887   -9.3537    0.6227 C   0  0
   37.0804   -8.6343    0.7441 C   0  0
   37.2070   -7.3691    0.1734 C   0  0
   36.0867   -6.8188   -0.4732 C   0  0
   38.4683   -6.5366    0.2851 C   0  0
   39.8203   -7.2849    0.3777 C   0  0  2  0  0  0
   40.9006   -6.2530    0.6578 C   0  0
   40.1580   -8.0364   -0.9216 C   0  0
   41.9857   -6.7476    1.2944 O   0  0
   40.8168   -5.0742    0.3453 O   0  0
   41.1833   -9.1281   -0.6977 C   0  0
   42.5328   -8.9243   -1.0169 C   0  0
   43.4784   -9.9214   -0.7641 C   0  0
   43.0821  -11.1318   -0.1978 C   0  0
   41.7402  -11.3479    0.1128 C   0  0
   40.7956  -10.3519   -0.1350 C   0  0
   33.5951   -9.4902   -0.2014 O   0  0
   33.4583  -10.7599    0.4442 C   0  0
   32.0314  -11.2498    0.2226 C   0  0
   31.7925  -12.6098    0.8524 C   0  0
   26.5044   -9.4741    0.2272 C   0  0
   25.2111   -8.9982   -0.0539 C   0  0
   24.0787   -9.7118    0.3487 C   0  0
   24.2215  -10.9134    1.0393 C   0  0
   25.4901  -11.4054    1.3288 C   0  0
   26.6143  -10.6890    0.9244 C   0  0
   27.8236  -11.1895    1.2272 F   0  0
   27.0784   -6.8404    0.6832 H   0  0
   28.6099  -10.4000   -1.2185 H   0  0
   30.6376   -9.1717   -1.8780 H   0  0
   29.1069   -5.6112    0.0120 H   0  0
   32.3720   -8.2175   -0.6218 H   0  0
   33.8895   -6.9442   -2.4071 H   0  0
   33.7638   -5.7309   -1.1178 H   0  0
   35.8593  -10.3429    1.0677 H   0  0
   37.8990   -9.0910    1.2927 H   0  0
   36.1654   -5.8176   -0.8998 H   0  0
   38.5089   -5.8548   -0.5763 H   0  0
   38.3487   -5.9014    1.1741 H   0  0
   39.7846   -7.9584    1.2424 H   0  0
   39.2648   -8.5067   -1.3502 H   0  0
   40.5234   -7.3412   -1.6890 H   0  0
   41.9809   -7.7167    1.4267 H   0  0
   42.8622   -7.9850   -1.4591 H   0  0
   44.5257   -9.7571   -1.0125 H   0  0
   43.8198  -11.9092   -0.0079 H   0  0
   41.4278  -12.2962    0.5424 H   0  0
   39.7508  -10.5402    0.1048 H   0  0
   34.1632  -11.4760    0.0056 H   0  0
   33.6395  -10.6595    1.5211 H   0  0
   31.3282  -10.5219    0.6432 H   0  0
   31.8200  -11.2953   -0.8523 H   0  0
   30.7584  -12.9275    0.6863 H   0  0
   31.9685  -12.5781    1.9320 H   0  0
   32.4543  -13.3653    0.4178 H   0  0
   25.0785   -8.0682   -0.6037 H   0  0
   23.0834   -9.3331    0.1216 H   0  0
   23.3423  -11.4669    1.3524 H   0  0
   25.6130  -12.3398    1.8671 H   0  0
  1  2  2  0
  1 40  1  0
  2  3  1  0
  2 33  1  0
  3  4  2  0
  3 41  1  0
  4  5  1  0
  4 42  1  0
  5  6  2  0
  5  7  1  0
  6  1  1  0
  6 43  1  0
  7  8  1  0
  7  9  2  0
  8 10  1  0
  8 44  1  0
 10 11  1  0
 10 45  1  0
 10 46  1  0
 11 12  2  0
 12 13  1  0
 12 29  1  0
 13 14  2  0
 13 47  1  0
 14 15  1  0
 14 48  1  0
 15 16  2  0
 15 17  1  0
 16 11  1  0
 16 49  1  0
 17 18  1  0
 17 50  1  0
 17 51  1  0
 18 19  1  0
 18 20  1  0
 18 52  1  0
 19 21  1  0
 19 22  2  0
 20 23  1  0
 20 53  1  0
 20 54  1  0
 21 55  1  0
 23 24  2  0
 24 25  1  0
 24 56  1  0
 25 26  2  0
 25 57  1  0
 26 27  1  0
 26 58  1  0
 27 28  2  0
 27 59  1  0
 28 23  1  0
 28 60  1  0
 29 30  1  0
 30 31  1  0
 30 61  1  0
 30 62  1  0
 31 32  1  0
 31 63  1  0
 31 64  1  0
 32 65  1  0
 32 66  1  0
 32 67  1  0
 33 34  2  0
 34 35  1  0
 34 68  1  0
 35 36  2  0
 35 69  1  0
 36 37  1  0
 36 70  1  0
 37 38  2  0
 37 71  1  0
 38 33  1  0
 38 39  1  0
M  END
> <Name>
CHEMBL2377523

> <Clean Energy>
18.4265

> <chembl_id>
CHEMBL2377523

> <chembl_pref_name>
None

> <efficacy>
0.95

> <Forcefield>
MMFF

> <ForcefieldBase>
MMFF

> <ForcefieldFFML>
<?xml version="1.0" encoding="UTF-8"?>
<!DOCTYPE ffml SYSTEM "Ffml.dtd">
<ffml version="1.0">
<forcefield name="MMFF" derivedFrom="MMFF" base="MMFF">
<atomTypes>
<atomType
name="C100"
element="C"
mass="12.011"
annotation=""/>
<atomType
name="N101"
element="N"
mass="14.007"
annotation=""/>
<atomType
name="O102"
element="O"
mass="16"
annotation=""/>
<atomType
name="F103"
element="F"
mass="18.998"
annotation=""/>
<atomType
name="H104"
element="H"
mass="1.008"
annotation=""/>
</atomTypes>
<parameters>
</parameters>
</forcefield>
</ffml>

> <Initial Potential Energy>
163.36351

> <Initial RMS Gradient>
30.95278

> <Minimization Criteria>
STEEPD> Minimization exiting with gradient tolerance ( 3.0000000) satisfied.

> <CHARMm Energy>
45.32521

> <Potential Energy>
45.32521

> <RMS Gradient>
0.07436

> <Bond Energy>
9.20779

> <Angle Energy>
13.27268

> <STRBend>
0.44938

> <Dihedral Energy>
1.77434

> <OOPLane>
0.05191

> <Van der Waals Energy>
83.36757

> <Electrostatic Energy>
-62.79845

> <Hydrogen Bond Energy>
0

> <Solvation Free Energy>
0

> <HasGasteigerCharges>
true

> <REMARK99>
REMARK  99  MacroMolecule created from Mol2 file
REMARK  99  CHEMBL2377523
REMARK  99  PROTEIN
REMARK  99  GASTEIGER
REMARK  99
REMARK  99

$$$$
CHEMBL5081013
  SciTegic05292516403D

 58 61  0  0  0  0            999 V2000
    1.8510  -20.5766   -2.1709 F   0  0
    2.8190  -20.9081   -1.2681 C   0  0
    2.7517  -19.9585   -0.2957 F   0  0
   -0.9004  -25.7229    1.0554 O   0  0
   -1.1976  -25.2610   -0.2871 S   0  0
   -2.2503  -25.8983   -1.0621 O   0  0
    1.6085  -23.1208   -1.1871 C   0  0
    1.3822  -24.4152   -0.6948 C   0  0
    2.2273  -24.8959    0.3088 C   0  0
    3.2944  -24.1208    0.7761 C   0  0
    3.5548  -22.8374    0.2576 C   0  0
    2.6713  -22.3143   -0.7147 C   0  0
    4.7731  -22.0840    0.7657 C   0  0
    5.9959  -22.8157    0.4958 N   0  0
    7.2391  -22.3014    0.8004 C   0  0
    8.3928  -23.1973    0.5203 C   0  0
    7.4414  -21.1805    1.2557 O   0  0
    8.3518  -24.5594    0.8299 C   0  0
    9.4605  -25.3864    0.6049 C   0  0
    9.5581  -22.6299   -0.0099 C   0  0
   10.6815  -23.4473   -0.2525 C   0  0
   10.6218  -24.8100    0.0607 C   0  0
   11.8622  -25.3483   -0.2478 N   0  0
   12.6797  -24.3675   -0.7606 C   0  0
   11.9753  -23.1876   -0.7759 C   0  0
   12.2731  -26.7425   -0.0525 C   0  0
    0.2903  -25.2834   -1.2724 C   0  0
   -1.6813  -23.5063   -0.2019 C   0  0
    4.0056  -20.7264   -1.9090 F   0  0
   12.6191  -27.4189   -1.3795 C   0  0
   13.4206  -26.8567    0.9518 C   0  0
   -1.3506  -22.7955    1.0810 C   0  0
   -2.7642  -23.2402    0.8132 C   0  0
    0.9565  -22.7255   -1.9676 H   0  0
    2.0740  -25.8885    0.7319 H   0  0
    3.9364  -24.5332    1.5545 H   0  0
    4.8726  -21.0908    0.3205 H   0  0
    4.6903  -21.9415    1.8497 H   0  0
    5.9355  -23.7028    0.0142 H   0  0
    7.4649  -24.9919    1.2864 H   0  0
    9.4251  -26.4372    0.8734 H   0  0
    9.6119  -21.5641   -0.2201 H   0  0
   13.6958  -24.5853   -1.0656 H   0  0
   12.3427  -22.2304   -1.1207 H   0  0
   11.4140  -27.2731    0.3705 H   0  0
    0.0207  -24.9554   -2.2820 H   0  0
    0.6220  -26.3249   -1.3418 H   0  0
   -1.7085  -22.9570   -1.1308 H   0  0
   12.8268  -28.4833   -1.2268 H   0  0
   13.5019  -26.9697   -1.8471 H   0  0
   11.7879  -27.3358   -2.0884 H   0  0
   13.6469  -27.9077    1.1604 H   0  0
   13.1594  -26.3733    1.8997 H   0  0
   14.3362  -26.3853    0.5786 H   0  0
   -0.7952  -23.3127    1.8561 H   0  0
   -1.1360  -21.7339    1.0322 H   0  0
   -3.5025  -22.4811    0.5806 H   0  0
   -3.1545  -24.0652    1.4003 H   0  0
  2  1  1  0
  2 29  1  0
  3  2  1  0
  5  4  2  0
  5 28  1  0
  6  5  2  0
  7  8  2  0
  7 34  1  0
  8  9  1  0
  8 27  1  0
  9 10  2  0
  9 35  1  0
 10 11  1  0
 10 36  1  0
 11 12  2  0
 11 13  1  0
 12  2  1  0
 12  7  1  0
 13 14  1  0
 13 37  1  0
 13 38  1  0
 14 15  1  0
 14 39  1  0
 15 16  1  0
 15 17  2  0
 16 18  2  0
 18 19  1  0
 18 40  1  0
 19 22  2  0
 19 41  1  0
 20 16  1  0
 20 42  1  0
 21 20  2  0
 21 22  1  0
 22 23  1  0
 23 24  1  0
 23 26  1  0
 24 25  2  0
 24 43  1  0
 25 21  1  0
 25 44  1  0
 26 30  1  0
 26 31  1  0
 26 45  1  0
 27  5  1  0
 27 46  1  0
 27 47  1  0
 28 33  1  0
 28 48  1  0
 30 49  1  0
 30 50  1  0
 30 51  1  0
 31 52  1  0
 31 53  1  0
 31 54  1  0
 32 28  1  0
 32 55  1  0
 32 56  1  0
 33 32  1  0
 33 57  1  0
 33 58  1  0
M  END
> <Name>
CHEMBL5081013

> <Clean Energy>
79.841103

> <chembl_id>
CHEMBL5081013

> <chembl_pref_name>
None

> <efficacy>
1.709401709

> <Forcefield>
MMFF

> <ForcefieldBase>
MMFF

> <ForcefieldFFML>
<?xml version="1.0" encoding="UTF-8"?>
<!DOCTYPE ffml SYSTEM "Ffml.dtd">
<ffml version="1.0">
<forcefield name="MMFF" derivedFrom="MMFF" base="MMFF">
<atomTypes>
<atomType
name="F100"
element="F"
mass="18.998"
annotation=""/>
<atomType
name="C101"
element="C"
mass="12.011"
annotation=""/>
<atomType
name="O102"
element="O"
mass="16"
annotation=""/>
<atomType
name="S103"
element="S"
mass="32.066"
annotation=""/>
<atomType
name="N104"
element="N"
mass="14.007"
annotation=""/>
<atomType
name="H105"
element="H"
mass="1.008"
annotation=""/>
</atomTypes>
<parameters>
</parameters>
</forcefield>
</ffml>

> <Initial Potential Energy>
186.43759

> <Initial RMS Gradient>
27.56034

> <Minimization Criteria>
CONJUG> Minimization exiting with gradient tolerance ( 0.0100000) satisfied.

> <CHARMm Energy>
102.11159

> <Potential Energy>
102.11159

> <RMS Gradient>
0.00976

> <Bond Energy>
6.62658

> <Angle Energy>
8.98465

> <STRBend>
0.51548

> <Dihedral Energy>
7.07319

> <OOPLane>
0.04893

> <Van der Waals Energy>
44.8999

> <Electrostatic Energy>
33.96286

> <Hydrogen Bond Energy>
0

> <Solvation Free Energy>
0

> <HasGasteigerCharges>
true

> <REMARK99>
REMARK  99  MacroMolecule created from Mol2 file
REMARK  99  CHEMBL5081013
REMARK  99  PROTEIN
REMARK  99  GASTEIGER
REMARK  99
REMARK  99

$$$$
CHEMBL490426
  SciTegic05292516403D

 51 52  0  0  0  0            999 V2000
    0.8479   -9.2086    1.1295 C   0  0
    0.8114  -10.2439    0.1970 C   0  0
    1.9920  -10.8241   -0.2819 C   0  0
    3.2213  -10.3258    0.1720 C   0  0
    3.2677   -9.2785    1.1066 C   0  0
    2.0741   -8.7210    1.5806 C   0  0
    4.5975   -8.7689    1.5623 C   0  0
    4.6963   -8.1475    2.9427 C   0  0
    5.6157   -8.8695    0.7564 N   0  0
    6.7747   -8.3201    1.3310 O   0  0
    7.8108   -8.2352    0.3508 C   0  0
    8.0490   -6.7867    0.0021 C   0  0
    8.8496   -5.9801    0.8197 C   0  0
    9.0424   -4.6335    0.5078 C   0  0
    8.4315   -4.0665   -0.6209 C   0  0
    7.6303   -4.8757   -1.4382 C   0  0
    7.4333   -6.2208   -1.1226 C   0  0
    1.9291  -11.9872   -1.2469 C   0  0
    2.2953  -13.3419   -0.6183 C   0  0  1  0  0  0
    1.1257  -13.8491    0.2549 C   0  0
    2.6104  -14.2170   -1.7089 O   0  0
    3.2470  -15.4239   -1.2939 C   0  0
    3.5316  -16.2587   -2.5270 C   0  0
    1.0523  -13.2481    1.4700 O   0  0
    0.3375  -14.7298   -0.0635 O   0  0
    8.6608   -2.6168   -0.9739 C   0  0
    9.6622   -2.4488   -1.8859 F   0  0
    9.0109   -1.8432    0.0950 F   0  0
    7.5609   -2.0206   -1.5153 F   0  0
   -0.0875   -8.7867    1.4969 H   0  0
   -0.1576  -10.6032   -0.1473 H   0  0
    4.1527  -10.7442   -0.2083 H   0  0
    2.0786   -7.8872    2.2775 H   0  0
    4.7429   -7.0592    2.8448 H   0  0
    5.5970   -8.5025    3.4526 H   0  0
    3.8491   -8.4189    3.5767 H   0  0
    8.7201   -8.6681    0.7830 H   0  0
    7.5772   -8.8254   -0.5449 H   0  0
    9.3220   -6.3965    1.7070 H   0  0
    9.6764   -4.0219    1.1501 H   0  0
    7.1499   -4.4569   -2.3216 H   0  0
    6.7845   -6.8317   -1.7498 H   0  0
    0.9321  -12.0451   -1.7041 H   0  0
    2.6084  -11.7692   -2.0826 H   0  0
    3.1877  -13.2532    0.0139 H   0  0
    4.1867  -15.1873   -0.7831 H   0  0
    2.6011  -15.9850   -0.6116 H   0  0
    4.0288  -17.1949   -2.2583 H   0  0
    4.1689  -15.7082   -3.2270 H   0  0
    2.6023  -16.4915   -3.0575 H   0  0
    1.7097  -12.5374    1.6141 H   0  0
  1  2  2  0
  1 30  1  0
  2  3  1  0
  2 31  1  0
  3  4  2  0
  3 18  1  0
  4  5  1  0
  4 32  1  0
  5  6  2  0
  5  7  1  0
  6  1  1  0
  6 33  1  0
  7  8  1  0
  7  9  2  0
  8 34  1  0
  8 35  1  0
  8 36  1  0
  9 10  1  0
 10 11  1  0
 11 12  1  0
 11 37  1  0
 11 38  1  0
 12 13  2  0
 13 14  1  0
 13 39  1  0
 14 15  2  0
 14 40  1  0
 15 16  1  0
 15 26  1  0
 16 17  2  0
 16 41  1  0
 17 12  1  0
 17 42  1  0
 18 19  1  0
 18 43  1  0
 18 44  1  0
 19 20  1  0
 19 21  1  0
 19 45  1  0
 20 24  1  0
 20 25  2  0
 21 22  1  0
 22 23  1  0
 22 46  1  0
 22 47  1  0
 23 48  1  0
 23 49  1  0
 23 50  1  0
 24 51  1  0
 26 27  1  0
 26 28  1  0
 26 29  1  0
M  END
> <Name>
CHEMBL490426

> <Clean Energy>
42.771301

> <chembl_id>
CHEMBL490426

> <chembl_pref_name>
None

> <efficacy>
1.35

> <Forcefield>
MMFF

> <ForcefieldBase>
MMFF

> <ForcefieldFFML>
<?xml version="1.0" encoding="UTF-8"?>
<!DOCTYPE ffml SYSTEM "Ffml.dtd">
<ffml version="1.0">
<forcefield name="MMFF" derivedFrom="MMFF" base="MMFF">
<atomTypes>
<atomType
name="C100"
element="C"
mass="12.011"
annotation=""/>
<atomType
name="N101"
element="N"
mass="14.007"
annotation=""/>
<atomType
name="O102"
element="O"
mass="16"
annotation=""/>
<atomType
name="F103"
element="F"
mass="18.998"
annotation=""/>
<atomType
name="H104"
element="H"
mass="1.008"
annotation=""/>
</atomTypes>
<parameters>
</parameters>
</forcefield>
</ffml>

> <Initial Potential Energy>
232.82494

> <Initial RMS Gradient>
26.29648

> <Minimization Criteria>
STEEPD> Minimization exiting with gradient tolerance ( 3.0000000) satisfied.

> <CHARMm Energy>
125.69803

> <Potential Energy>
125.69803

> <RMS Gradient>
0.01031

> <Bond Energy>
5.7083

> <Angle Energy>
7.32032

> <STRBend>
1.20075

> <Dihedral Energy>
2.60111

> <OOPLane>
0.04652

> <Van der Waals Energy>
47.72587

> <Electrostatic Energy>
61.09518

> <Hydrogen Bond Energy>
0

> <Solvation Free Energy>
0

> <HasGasteigerCharges>
true

> <REMARK99>
REMARK  99  MacroMolecule created from Mol2 file
REMARK  99  CHEMBL490426
REMARK  99  PROTEIN
REMARK  99  GASTEIGER
REMARK  99
REMARK  99

$$$$
CHEMBL3765763
  SciTegic05292516403D

 48 49  0  0  0  0            999 V2000
    4.3158    0.1278   -0.3255 F   0  0
    2.9767    0.1604   -0.5311 C   0  0
    2.7021   -0.5476   -1.6514 F   0  0
    2.3139   -0.4372    0.5795 O   0  0
    0.4069   -1.4152    1.4739 C   0  0
    0.9542   -0.5609    0.5155 C   0  0
    0.0966    0.0772   -0.3826 C   0  0
   -1.2856   -0.1748   -0.3537 C   0  0
   -1.8275   -1.0782    0.5694 C   0  0
   -0.9664   -1.6733    1.5021 C   0  0
   -3.2884   -1.4717    0.5443 C   0  0
   -3.4352   -2.8614    0.1794 N   0  0
   -4.5469   -3.6059    0.5086 C   0  0
   -4.4230   -5.0486    0.1832 C   0  0
   -5.5347   -3.1784    1.0904 O   0  0
   -4.7554   -5.9889    1.1619 C   0  0
   -4.4419   -7.3335    0.9591 C   0  0
   -3.8092   -7.7460   -0.2242 C   0  0
   -3.5982   -6.8118   -1.2482 C   0  0
   -3.8896   -5.4634   -1.0411 C   0  0
   -3.3492   -9.1754   -0.3735 C   0  0
   -1.8460   -9.3417   -0.6905 C   0  0  2  0  0  0
   -1.6097  -10.8348   -0.8273 C   0  0
   -0.8649   -8.7077    0.3232 C   0  0
   -0.4454   -7.2803   -0.0014 C   0  0
   -1.3699  -11.4866    0.3356 O   0  0
   -1.7182  -11.4407   -1.8845 O   0  0
    2.6135    1.4501   -0.6971 F   0  0
    1.0537   -1.9256    2.1847 H   0  0
    0.4606    0.7900   -1.1198 H   0  0
   -1.9266    0.3431   -1.0680 H   0  0
   -1.3602   -2.3703    2.2404 H   0  0
   -3.7428   -1.2926    1.5255 H   0  0
   -3.8426   -0.8781   -0.1909 H   0  0
   -2.6482   -3.3077   -0.2719 H   0  0
   -5.2062   -5.6679    2.0986 H   0  0
   -4.6771   -8.0545    1.7424 H   0  0
   -3.1465   -7.1093   -2.1923 H   0  0
   -3.6764   -4.7434   -1.8269 H   0  0
   -3.5869   -9.7351    0.5413 H   0  0
   -3.9504   -9.6417   -1.1659 H   0  0
   -1.6256   -8.9196   -1.6800 H   0  0
   -1.2850   -8.7351    1.3360 H   0  0
    0.0593   -9.2999    0.3521 H   0  0
    0.3941   -6.9869    0.6381 H   0  0
   -1.2489   -6.5664    0.1856 H   0  0
   -0.1216   -7.1857   -1.0423 H   0  0
   -1.2893  -10.8862    1.1021 H   0  0
  2  1  1  0
  2 28  1  0
  3  2  1  0
  4  2  1  0
  5  6  2  0
  5 29  1  0
  6  4  1  0
  6  7  1  0
  7  8  2  0
  7 30  1  0
  8  9  1  0
  8 31  1  0
  9 10  2  0
  9 11  1  0
 10  5  1  0
 10 32  1  0
 11 12  1  0
 11 33  1  0
 11 34  1  0
 12 13  1  0
 12 35  1  0
 13 14  1  0
 13 15  2  0
 14 16  2  0
 16 17  1  0
 16 36  1  0
 17 18  2  0
 17 37  1  0
 18 19  1  0
 18 21  1  0
 19 20  2  0
 19 38  1  0
 20 14  1  0
 20 39  1  0
 21 22  1  0
 21 40  1  0
 21 41  1  0
 22 23  1  0
 22 24  1  0
 22 42  1  0
 23 26  1  0
 23 27  2  0
 24 25  1  0
 24 43  1  0
 24 44  1  0
 25 45  1  0
 25 46  1  0
 25 47  1  0
 26 48  1  0
M  END
> <Name>
CHEMBL3765763

> <Clean Energy>
15.288

> <chembl_id>
CHEMBL3765763

> <chembl_pref_name>
None

> <efficacy>
1.18708452

> <Forcefield>
MMFF

> <ForcefieldBase>
MMFF

> <ForcefieldFFML>
<?xml version="1.0" encoding="UTF-8"?>
<!DOCTYPE ffml SYSTEM "Ffml.dtd">
<ffml version="1.0">
<forcefield name="MMFF" derivedFrom="MMFF" base="MMFF">
<atomTypes>
<atomType
name="F100"
element="F"
mass="18.998"
annotation=""/>
<atomType
name="C101"
element="C"
mass="12.011"
annotation=""/>
<atomType
name="O102"
element="O"
mass="16"
annotation=""/>
<atomType
name="N103"
element="N"
mass="14.007"
annotation=""/>
<atomType
name="H104"
element="H"
mass="1.008"
annotation=""/>
</atomTypes>
<parameters>
</parameters>
</forcefield>
</ffml>

> <Initial Potential Energy>
80.23832

> <Initial RMS Gradient>
28.21269

> <Minimization Criteria>
CONJUG> Minimization exiting with gradient tolerance ( 0.0100000) satisfied.

> <CHARMm Energy>
5.21861

> <Potential Energy>
5.21861

> <RMS Gradient>
0.00788

> <Bond Energy>
4.98674

> <Angle Energy>
14.94013

> <STRBend>
0.34702

> <Dihedral Energy>
1.9332

> <OOPLane>
0.3893

> <Van der Waals Energy>
48.89263

> <Electrostatic Energy>
-66.27041

> <Hydrogen Bond Energy>
0

> <Solvation Free Energy>
0

> <HasGasteigerCharges>
true

> <REMARK99>
REMARK  99  MacroMolecule created from Mol2 file
REMARK  99  CHEMBL3765763
REMARK  99  PROTEIN
REMARK  99  GASTEIGER
REMARK  99
REMARK  99

$$$$
CHEMBL3318037
  SciTegic05292516403D

 53 55  0  0  0  0            999 V2000
   27.4605   -7.1415    0.1938 C   0  0
   27.1225   -8.3585    0.7402 C   0  0
   28.0218   -9.3758    0.5337 C   0  0
   29.1775   -9.2736   -0.1378 N   0  0
   29.4095   -8.0523   -0.6317 C   0  0
   28.6015   -6.9929   -0.4952 N   0  0
   27.7364  -10.9392    1.1848 Cl  0  0
   30.9310   -7.7605   -1.4926 S   0  0
   32.0855   -8.6217   -0.3621 C   0  0  2  0  0  0
   31.8752   -8.1226    1.0662 C   0  0
   31.3399   -9.0572    1.8941 O   0  0
   32.1512   -6.9978    1.4611 O   0  0
   26.6160   -6.0369    0.4218 N   0  0
   26.8872   -4.6544    0.3747 C   0  0
   28.1796   -4.1199    0.3735 C   0  0
   28.4021   -2.7320    0.3479 C   0  0
   27.3399   -1.8281    0.3403 C   0  0
   26.0435   -2.3587    0.3406 C   0  0
   25.8208   -3.7457    0.3622 C   0  0
   33.5291   -8.3687   -0.8209 C   0  0
   34.5377   -9.2289   -0.0478 C   0  0
   35.9635   -8.9967   -0.5493 C   0  0
   36.9675   -9.8467    0.2130 C   0  0
   27.5098   -0.4327    0.3028 N   0  0
   28.5571    0.3906   -0.1525 C   0  0
   29.4831   -0.0080   -1.1243 C   0  0
   30.5068    0.8534   -1.5453 C   0  0
   30.6353    2.1212   -0.9823 C   0  0
   29.7442    2.5169    0.0096 C   0  0
   28.7109    1.6654    0.4140 C   0  0
   26.2220   -8.5000    1.3201 H   0  0
   31.8821   -9.6963   -0.4240 H   0  0
   31.0771   -9.8910    1.4521 H   0  0
   25.6328   -6.2763    0.4486 H   0  0
   29.0514   -4.7678    0.4120 H   0  0
   29.4287   -2.3766    0.3773 H   0  0
   25.1837   -1.6929    0.3159 H   0  0
   24.7943   -4.1022    0.3631 H   0  0
   33.6260   -8.6034   -1.8891 H   0  0
   33.7938   -7.3103   -0.6969 H   0  0
   34.4880   -8.9955    1.0222 H   0  0
   34.2779  -10.2885   -0.1604 H   0  0
   36.0269   -9.2370   -1.6169 H   0  0
   36.2296   -7.9392   -0.4380 H   0  0
   37.9797   -9.6649   -0.1616 H   0  0
   36.7483  -10.9128    0.0954 H   0  0
   36.9527   -9.6083    1.2813 H   0  0
   26.7233    0.0863    0.6784 H   0  0
   29.3934   -0.9813   -1.6002 H   0  0
   31.1987    0.5367   -2.3218 H   0  0
   31.4147    2.8092   -1.3129 H   0  0
   29.8480    3.4986    0.4648 H   0  0
   28.0273    2.0130    1.1855 H   0  0
  1  2  2  0
  1 13  1  0
  2  3  1  0
  2 31  1  0
  3  4  2  0
  3  7  1  0
  4  5  1  0
  5  6  2  0
  5  8  1  0
  6  1  1  0
  8  9  1  0
  9 10  1  0
  9 20  1  0
  9 32  1  0
 10 11  1  0
 10 12  2  0
 11 33  1  0
 13 14  1  0
 13 34  1  0
 14 15  2  0
 15 16  1  0
 15 35  1  0
 16 17  2  0
 16 36  1  0
 17 18  1  0
 17 24  1  0
 18 19  2  0
 18 37  1  0
 19 14  1  0
 19 38  1  0
 20 21  1  0
 20 39  1  0
 20 40  1  0
 21 22  1  0
 21 41  1  0
 21 42  1  0
 22 23  1  0
 22 43  1  0
 22 44  1  0
 23 45  1  0
 23 46  1  0
 23 47  1  0
 24 25  1  0
 24 48  1  0
 25 26  2  0
 26 27  1  0
 26 49  1  0
 27 28  2  0
 27 50  1  0
 28 29  1  0
 28 51  1  0
 29 30  2  0
 29 52  1  0
 30 25  1  0
 30 53  1  0
M  END
> <Name>
CHEMBL3318037

> <Clean Energy>
10.8138

> <chembl_id>
CHEMBL3318037

> <chembl_pref_name>
None

> <efficacy>
1.282051282

> <Forcefield>
MMFF

> <ForcefieldBase>
MMFF

> <ForcefieldFFML>
<?xml version="1.0" encoding="UTF-8"?>
<!DOCTYPE ffml SYSTEM "Ffml.dtd">
<ffml version="1.0">
<forcefield name="MMFF" derivedFrom="MMFF" base="MMFF">
<atomTypes>
<atomType
name="C100"
element="C"
mass="12.011"
annotation=""/>
<atomType
name="N101"
element="N"
mass="14.007"
annotation=""/>
<atomType
name="Cl102"
element="Cl"
mass="35.453"
annotation=""/>
<atomType
name="S103"
element="S"
mass="32.066"
annotation=""/>
<atomType
name="O104"
element="O"
mass="16"
annotation=""/>
<atomType
name="H105"
element="H"
mass="1.008"
annotation=""/>
</atomTypes>
<parameters>
</parameters>
</forcefield>
</ffml>

> <Initial Potential Energy>
62.8614

> <Initial RMS Gradient>
40.33152

> <Minimization Criteria>
CONJUG> Minimization exiting with gradient tolerance ( 0.0100000) satisfied.

> <CHARMm Energy>
-79.57191

> <Potential Energy>
-79.57191

> <RMS Gradient>
0.00924

> <Bond Energy>
4.56693

> <Angle Energy>
12.69092

> <STRBend>
0.21494

> <Dihedral Energy>
16.23219

> <OOPLane>
0.2814

> <Van der Waals Energy>
55.52938

> <Electrostatic Energy>
-169.08767

> <Hydrogen Bond Energy>
0

> <Solvation Free Energy>
0

> <HasGasteigerCharges>
true

> <REMARK99>
REMARK  99  MacroMolecule created from Mol2 file
REMARK  99  CHEMBL3318037
REMARK  99  PROTEIN
REMARK  99  GASTEIGER
REMARK  99
REMARK  99

$$$$
CHEMBL4762983
  SciTegic05292516403D

 61 64  0  0  0  0            999 V2000
   17.7042  -23.5066   -0.0858 C   0  0
   17.5697  -24.6608   -0.8592 C   0  0
   18.6886  -25.2274   -1.4875 C   0  0
   18.9511  -22.8764    0.0754 C   0  0
   20.0789  -23.4176   -0.5864 C   0  0
   19.9276  -24.5810   -1.3432 C   0  0
   21.1906  -24.8442   -1.8309 N   0  0
   22.0314  -23.8320   -1.4223 C   0  0
   21.3850  -22.9829   -0.6476 N   0  0
   21.5757  -25.9726   -2.6464 C   0  0
   23.4523  -23.6774   -1.8602 C   0  0
   24.2255  -24.8083   -1.4314 O   0  0
   25.0946  -24.5389   -0.4099 C   0  0
   24.7222  -23.8808    0.7654 C   0  0
   25.6605  -23.6645    1.7777 C   0  0
   26.9741  -24.1048    1.6166 C   0  0
   27.3401  -24.7670    0.4382 C   0  0
   26.3958  -25.0115   -0.5624 C   0  0
   28.7295  -25.2250    0.2264 C   0  0
   29.6412  -24.2833    0.5607 O   0  0
   29.0204  -26.3106   -0.2422 O   0  0
   16.3929  -25.3613   -1.0451 O   0  0
   15.2067  -24.7593   -0.7111 C   0  0
   14.6096  -23.8527   -1.5835 C   0  0
   13.3596  -23.3227   -1.2659 C   0  0
   12.7418  -23.7205   -0.0836 C   0  0
   13.3057  -24.6110    0.7682 N   0  0
   14.5200  -25.1311    0.4436 C   0  0
   15.0979  -26.1375    1.3936 C   0  0
   11.3977  -23.1683    0.2886 C   0  0
   18.8979  -21.7233    0.8527 O   0  0
   20.1376  -21.2577    1.4023 C   0  0
   19.8263  -20.7523    2.8106 C   0  0
   20.6689  -20.1109    0.5480 C   0  0
   16.8458  -23.0688    0.4191 H   0  0
   18.5845  -26.1343   -2.0752 H   0  0
   22.1638  -25.6155   -3.4952 H   0  0
   20.6881  -26.4849   -3.0223 H   0  0
   22.1636  -26.6555   -2.0283 H   0  0
   23.4941  -23.6522   -2.9551 H   0  0
   23.8696  -22.7222   -1.5159 H   0  0
   23.6947  -23.5540    0.9187 H   0  0
   25.3676  -23.1620    2.6970 H   0  0
   27.6924  -23.9561    2.4206 H   0  0
   26.6821  -25.5504   -1.4631 H   0  0
   29.2381  -23.4150    0.7587 H   0  0
   15.1085  -23.5697   -2.5053 H   0  0
   12.8736  -22.6179   -1.9337 H   0  0
   16.0380  -25.7683    1.8146 H   0  0
   15.2787  -27.0868    0.8797 H   0  0
   14.4088  -26.3293    2.2226 H   0  0
   11.0685  -23.5636    1.2550 H   0  0
   10.6542  -23.4452   -0.4651 H   0  0
   11.4447  -22.0776    0.3651 H   0  0
   20.8777  -22.0570    1.5113 H   0  0
   20.7230  -20.3588    3.2993 H   0  0
   19.4227  -21.5648    3.4247 H   0  0
   19.0630  -19.9664    2.7890 H   0  0
   21.6102  -19.7233    0.9495 H   0  0
   19.9446  -19.2895    0.5040 H   0  0
   20.8363  -20.4261   -0.4860 H   0  0
  1  2  2  0
  1 35  1  0
  2  3  1  0
  2 22  1  0
  3  6  2  0
  3 36  1  0
  4  1  1  0
  4 31  1  0
  5  4  2  0
  5  6  1  0
  6  7  1  0
  7  8  1  0
  7 10  1  0
  8  9  2  0
  8 11  1  0
  9  5  1  0
 10 37  1  0
 10 38  1  0
 10 39  1  0
 11 12  1  0
 11 40  1  0
 11 41  1  0
 12 13  1  0
 13 14  2  0
 14 15  1  0
 14 42  1  0
 15 16  2  0
 15 43  1  0
 16 17  1  0
 16 44  1  0
 17 18  2  0
 17 19  1  0
 18 13  1  0
 18 45  1  0
 19 20  1  0
 19 21  2  0
 20 46  1  0
 22 23  1  0
 23 24  2  0
 24 25  1  0
 24 47  1  0
 25 26  2  0
 25 48  1  0
 26 27  1  0
 26 30  1  0
 27 28  2  0
 28 23  1  0
 28 29  1  0
 29 49  1  0
 29 50  1  0
 29 51  1  0
 30 52  1  0
 30 53  1  0
 30 54  1  0
 31 32  1  0
 32 33  1  0
 32 34  1  0
 32 55  1  0
 33 56  1  0
 33 57  1  0
 33 58  1  0
 34 59  1  0
 34 60  1  0
 34 61  1  0
M  END
> <Name>
CHEMBL4762983

> <Clean Energy>
38.585602

> <chembl_id>
CHEMBL4762983

> <chembl_pref_name>
None

> <efficacy>
1.03

> <Forcefield>
MMFF

> <ForcefieldBase>
MMFF

> <ForcefieldFFML>
<?xml version="1.0" encoding="UTF-8"?>
<!DOCTYPE ffml SYSTEM "Ffml.dtd">
<ffml version="1.0">
<forcefield name="MMFF" derivedFrom="MMFF" base="MMFF">
<atomTypes>
<atomType
name="C100"
element="C"
mass="12.011"
annotation=""/>
<atomType
name="N101"
element="N"
mass="14.007"
annotation=""/>
<atomType
name="O102"
element="O"
mass="16"
annotation=""/>
<atomType
name="H103"
element="H"
mass="1.008"
annotation=""/>
</atomTypes>
<parameters>
</parameters>
</forcefield>
</ffml>

> <Initial Potential Energy>
247.59598

> <Initial RMS Gradient>
45.73355

> <Minimization Criteria>
CONJUG> Minimization exiting with gradient tolerance ( 0.0100000) satisfied.

> <CHARMm Energy>
95.82504

> <Potential Energy>
95.82504

> <RMS Gradient>
0.00871

> <Bond Energy>
5.62897

> <Angle Energy>
22.62236

> <STRBend>
0.90945

> <Dihedral Energy>
15.16968

> <OOPLane>
0.20015

> <Van der Waals Energy>
65.10762

> <Electrostatic Energy>
-13.81319

> <Hydrogen Bond Energy>
0

> <Solvation Free Energy>
0

> <HasGasteigerCharges>
true

> <REMARK99>
REMARK  99  MacroMolecule created from Mol2 file
REMARK  99  CHEMBL4762983
REMARK  99  PROTEIN
REMARK  99  GASTEIGER
REMARK  99
REMARK  99

$$$$
CHEMBL3318040
  SciTegic05292516403D

 58 60  0  0  0  0            999 V2000
    0.2668  -21.4651   -0.0084 C   0  0
    0.1301  -22.7928    0.3268 C   0  0
    1.2790  -23.5437    0.2791 C   0  0
    2.4905  -23.0905   -0.0632 N   0  0
    2.5235  -21.7942   -0.3662 C   0  0
    1.4674  -20.9654   -0.3389 N   0  0
    1.2463  -25.2134    0.6802 Cl  0  0
    4.0580  -21.0335   -0.8349 S   0  0
    5.2407  -22.0354    0.1623 C   0  0  2  0  0  0
    6.4411  -21.1638    0.5586 C   0  0
    6.1652  -19.8384    0.6741 O   0  0
    7.5533  -21.6049    0.8214 O   0  0
   -0.8733  -20.6370    0.0448 N   0  0
   -1.0034  -19.2349    0.1312 C   0  0
    0.0435  -18.3814    0.4991 C   0  0
   -0.1488  -16.9950    0.6144 C   0  0
   -1.3976  -16.4353    0.3460 C   0  0
   -2.4608  -17.2677   -0.0054 C   0  0
   -2.2596  -18.6516   -0.1139 C   0  0
    5.6894  -23.2564   -0.6591 C   0  0
    6.1465  -24.4158    0.2373 C   0  0
    6.5936  -25.6165   -0.5992 C   0  0
    7.0518  -26.7753    0.2875 C   0  0
   -1.6959  -15.1011    0.5075 O   0  0
   -0.7614  -14.1483    0.1704 C   0  0
   -0.0372  -14.1637   -1.0238 C   0  0
    0.7984  -13.0875   -1.3487 C   0  0
    0.8997  -11.9892   -0.4919 C   0  0
    0.1878  -11.9842    0.7067 C   0  0
   -0.6517  -13.0537    1.0308 C   0  0
    7.5027  -27.9706   -0.5518 C   0  0
    7.9675  -29.1231    0.3238 C   0  0
   -0.8179  -23.2176    0.6235 H   0  0
    4.7565  -22.3327    1.0992 H   0  0
    5.2593  -19.6289    0.3633 H   0  0
   -1.7274  -21.1169   -0.2136 H   0  0
    1.0270  -18.7797    0.7303 H   0  0
    0.6815  -16.3722    0.9361 H   0  0
   -3.4477  -16.8435   -0.1861 H   0  0
   -3.1023  -19.2782   -0.3894 H   0  0
    4.8722  -23.6329   -1.2868 H   0  0
    6.5056  -22.9788   -1.3388 H   0  0
    6.9716  -24.0966    0.8830 H   0  0
    5.3207  -24.7156    0.8943 H   0  0
    5.7657  -25.9483   -1.2377 H   0  0
    7.4136  -25.3159   -1.2627 H   0  0
    7.8780  -26.4436    0.9282 H   0  0
    6.2313  -27.0789    0.9493 H   0  0
   -0.1226  -15.0016   -1.7115 H   0  0
    1.3636  -13.1036   -2.2779 H   0  0
    1.5010  -11.1177   -0.7616 H   0  0
    0.2568  -11.1232    1.3700 H   0  0
   -1.2487  -13.0079    1.9391 H   0  0
    6.6773  -28.3117   -1.1876 H   0  0
    8.3216  -27.6715   -1.2162 H   0  0
    8.2844  -29.9669   -0.2972 H   0  0
    7.1613  -29.4677    0.9792 H   0  0
    8.8150  -28.8241    0.9489 H   0  0
  1  2  2  0
  1 13  1  0
  2  3  1  0
  2 33  1  0
  3  4  2  0
  3  7  1  0
  4  5  1  0
  5  6  2  0
  5  8  1  0
  6  1  1  0
  8  9  1  0
  9 10  1  0
  9 20  1  0
  9 34  1  0
 10 11  1  0
 10 12  2  0
 11 35  1  0
 13 14  1  0
 13 36  1  0
 14 15  2  0
 15 16  1  0
 15 37  1  0
 16 17  2  0
 16 38  1  0
 17 18  1  0
 17 24  1  0
 18 19  2  0
 18 39  1  0
 19 14  1  0
 19 40  1  0
 20 21  1  0
 20 41  1  0
 20 42  1  0
 21 22  1  0
 21 43  1  0
 21 44  1  0
 22 23  1  0
 22 45  1  0
 22 46  1  0
 23 31  1  0
 23 47  1  0
 23 48  1  0
 24 25  1  0
 25 26  2  0
 26 27  1  0
 26 49  1  0
 27 28  2  0
 27 50  1  0
 28 29  1  0
 28 51  1  0
 29 30  2  0
 29 52  1  0
 30 25  1  0
 30 53  1  0
 31 32  1  0
 31 54  1  0
 31 55  1  0
 32 56  1  0
 32 57  1  0
 32 58  1  0
M  END
> <Name>
CHEMBL3318040

> <Clean Energy>
15.3254

> <chembl_id>
CHEMBL3318040

> <chembl_pref_name>
None

> <efficacy>
1.38651472

> <Forcefield>
MMFF

> <ForcefieldBase>
MMFF

> <ForcefieldFFML>
<?xml version="1.0" encoding="UTF-8"?>
<!DOCTYPE ffml SYSTEM "Ffml.dtd">
<ffml version="1.0">
<forcefield name="MMFF" derivedFrom="MMFF" base="MMFF">
<atomTypes>
<atomType
name="C100"
element="C"
mass="12.011"
annotation=""/>
<atomType
name="N101"
element="N"
mass="14.007"
annotation=""/>
<atomType
name="Cl102"
element="Cl"
mass="35.453"
annotation=""/>
<atomType
name="S103"
element="S"
mass="32.066"
annotation=""/>
<atomType
name="O104"
element="O"
mass="16"
annotation=""/>
<atomType
name="H105"
element="H"
mass="1.008"
annotation=""/>
</atomTypes>
<parameters>
</parameters>
</forcefield>
</ffml>

> <Initial Potential Energy>
106.98443

> <Initial RMS Gradient>
45.95559

> <Minimization Criteria>
STEEPD> Minimization exiting with gradient tolerance ( 3.0000000) satisfied.

> <CHARMm Energy>
-62.09445

> <Potential Energy>
-62.09445

> <RMS Gradient>
0.03624

> <Bond Energy>
5.01616

> <Angle Energy>
14.4439

> <STRBend>
0.53313

> <Dihedral Energy>
4.81409

> <OOPLane>
0.55257

> <Van der Waals Energy>
60.80454

> <Electrostatic Energy>
-148.25883

> <Hydrogen Bond Energy>
0

> <Solvation Free Energy>
0

> <HasGasteigerCharges>
true

> <REMARK99>
REMARK  99  MacroMolecule created from Mol2 file
REMARK  99  CHEMBL3318040
REMARK  99  PROTEIN
REMARK  99  GASTEIGER
REMARK  99
REMARK  99

$$$$
CHEMBL4160416
  SciTegic05292516403D

 64 67  0  0  0  0            999 V2000
   30.5651  -22.8607    1.8584 F   0  0
   32.2642  -23.9293    0.9865 F   0  0
   31.1058  -23.2948    0.6978 C   0  0
   20.4976  -22.0838    0.4006 C   0  0
   20.2286  -23.3996   -0.0213 C   0  0
   21.2232  -24.1332   -0.6812 C   0  0
   21.7376  -21.4830    0.1479 C   0  0
   22.7031  -22.2192   -0.5235 C   0  0
   22.4481  -23.5327   -0.9193 C   0  0
   23.8669  -24.2482   -1.7046 S   0  0
   24.7939  -22.7557   -1.5007 C   0  0
   23.9985  -21.7979   -0.8761 N   0  0
   25.9554  -22.6278   -1.8592 O   0  0
   24.5478  -20.4863   -0.6055 C   0  0
   25.4829  -20.4695    0.6069 C   0  0
   26.0246  -19.1474    0.7414 O   0  0
   27.3888  -19.1335    0.6332 C   0  0
   28.2001  -19.6370    1.6477 C   0  0
   29.5908  -19.5464    1.5335 C   0  0
   30.1771  -18.9450    0.4090 C   0  0
   29.3461  -18.4369   -0.5998 C   0  0
   27.9558  -18.5206   -0.4812 C   0  0
   31.6828  -18.8353    0.2910 C   0  0
   32.3218  -19.9662   -0.5251 C   0  0  1  0  0  0
   33.7966  -19.6264   -0.7737 C   0  0
   32.3048  -21.1978    0.2323 O   0  0
   31.3367  -22.1416   -0.2754 C   0  0
   34.6408  -20.5136   -0.1821 O   0  0
   34.1982  -18.6706   -1.4207 O   0  0
   18.9549  -24.0776    0.2375 C   0  0
   17.7489  -23.5505   -0.0225 C   0  0
   16.5194  -24.3467    0.1000 C   0  0
   15.3586  -23.7801    0.6426 C   0  0
   14.1851  -24.5372    0.7203 C   0  0
   14.1497  -25.8476    0.2551 C   0  0
   15.2988  -26.3989   -0.2978 C   0  0
   16.4724  -25.6605   -0.3843 C   0  0
   15.3296  -27.6730   -0.7805 O   0  0
   13.0380  -24.0136    1.2534 O   0  0
   30.2580  -24.2059    0.1697 F   0  0
   19.7336  -21.5216    0.9364 H   0  0
   21.0376  -25.1535   -1.0072 H   0  0
   21.9297  -20.4714    0.4913 H   0  0
   25.1209  -20.1723   -1.4882 H   0  0
   23.7552  -19.7386   -0.4982 H   0  0
   24.9175  -20.6936    1.5186 H   0  0
   26.2586  -21.2404    0.5077 H   0  0
   27.7589  -20.0816    2.5351 H   0  0
   30.2151  -19.9375    2.3358 H   0  0
   29.7741  -17.9498   -1.4743 H   0  0
   27.3188  -18.1021   -1.2553 H   0  0
   31.9223  -17.8599   -0.1523 H   0  0
   32.1147  -18.8164    1.3008 H   0  0
   31.8523  -20.1056   -1.5067 H   0  0
   30.3815  -21.6432   -0.4666 H   0  0
   31.7164  -22.5364   -1.2240 H   0  0
   34.0836  -21.1834    0.2825 H   0  0
   19.0578  -25.1009    0.5959 H   0  0
   17.6344  -22.5355   -0.3924 H   0  0
   15.3951  -22.7560    1.0025 H   0  0
   13.2292  -26.4145    0.3262 H   0  0
   17.3473  -26.1156   -0.8429 H   0  0
   14.4475  -28.0673   -0.6670 H   0  0
   13.2569  -23.1094    1.5374 H   0  0
  1  3  1  0
  3  2  1  0
  3 40  1  0
  4  5  2  0
  4 41  1  0
  5  6  1  0
  5 30  1  0
  6  9  2  0
  6 42  1  0
  7  4  1  0
  7 43  1  0
  8  7  2  0
  8  9  1  0
  9 10  1  0
 10 11  1  0
 11 12  1  0
 11 13  2  0
 12  8  1  0
 12 14  1  0
 14 15  1  0
 14 44  1  0
 14 45  1  0
 15 16  1  0
 15 46  1  0
 15 47  1  0
 16 17  1  0
 17 18  2  0
 18 19  1  0
 18 48  1  0
 19 20  2  0
 19 49  1  0
 20 21  1  0
 20 23  1  0
 21 22  2  0
 21 50  1  0
 22 17  1  0
 22 51  1  0
 23 24  1  0
 23 52  1  0
 23 53  1  0
 24 25  1  0
 24 26  1  0
 24 54  1  0
 25 28  1  0
 25 29  2  0
 26 27  1  0
 27  3  1  0
 27 55  1  0
 27 56  1  0
 28 57  1  0
 30 31  2  0
 30 58  1  0
 31 32  1  0
 31 59  1  0
 32 33  2  0
 33 34  1  0
 33 60  1  0
 34 35  2  0
 34 39  1  0
 35 36  1  0
 35 61  1  0
 36 37  2  0
 36 38  1  0
 37 32  1  0
 37 62  1  0
 38 63  1  0
 39 64  1  0
M  END
> <Name>
CHEMBL4160416

> <Clean Energy>
45.710602

> <chembl_id>
CHEMBL4160416

> <chembl_pref_name>
None

> <efficacy>
0.98

> <Forcefield>
MMFF

> <ForcefieldBase>
MMFF

> <ForcefieldFFML>
<?xml version="1.0" encoding="UTF-8"?>
<!DOCTYPE ffml SYSTEM "Ffml.dtd">
<ffml version="1.0">
<forcefield name="MMFF" derivedFrom="MMFF" base="MMFF">
<atomTypes>
<atomType
name="F100"
element="F"
mass="18.998"
annotation=""/>
<atomType
name="C101"
element="C"
mass="12.011"
annotation=""/>
<atomType
name="S102"
element="S"
mass="32.066"
annotation=""/>
<atomType
name="N103"
element="N"
mass="14.007"
annotation=""/>
<atomType
name="O104"
element="O"
mass="16"
annotation=""/>
<atomType
name="H105"
element="H"
mass="1.008"
annotation=""/>
</atomTypes>
<parameters>
</parameters>
</forcefield>
</ffml>

> <Initial Potential Energy>
218.56486

> <Initial RMS Gradient>
30.1879

> <Minimization Criteria>
STEEPD> Minimization exiting with gradient tolerance ( 3.0000000) satisfied.

> <CHARMm Energy>
84.72278

> <Potential Energy>
84.72278

> <RMS Gradient>
0.04573

> <Bond Energy>
6.60716

> <Angle Energy>
18.39412

> <STRBend>
0.38814

> <Dihedral Energy>
16.90205

> <OOPLane>
0.10495

> <Van der Waals Energy>
66.40703

> <Electrostatic Energy>
-24.08068

> <Hydrogen Bond Energy>
0

> <Solvation Free Energy>
0

> <HasGasteigerCharges>
true

> <REMARK99>
REMARK  99  MacroMolecule created from Mol2 file
REMARK  99  CHEMBL4160416
REMARK  99  PROTEIN
REMARK  99  GASTEIGER
REMARK  99
REMARK  99

$$$$
CHEMBL4159869
  SciTegic05292516403D

 70 73  0  0  0  0            999 V2000
   13.9022  -13.6430   -2.6109 C   0  0
   12.5716  -13.7645   -2.4260 F   0  0
   14.4884  -14.8204   -2.2980 F   0  0
    3.0157  -13.5772   -0.0204 C   0  0
    2.7226  -14.9013    0.3600 C   0  0
    3.7736  -15.8010    0.5851 C   0  0
    4.3382  -13.1472   -0.1905 C   0  0
    5.3602  -14.0605    0.0183 C   0  0
    5.0749  -15.3705    0.4010 C   0  0
    6.5581  -16.3140    0.6116 S   0  0
    7.5583  -14.9168    0.1990 C   0  0
    6.7419  -13.8305   -0.1011 N   0  0
    8.7794  -14.9372    0.2183 O   0  0
    7.3427  -12.5511   -0.4167 C   0  0
    7.7679  -11.7875    0.8421 C   0  0
    8.3724  -10.5420    0.4736 O   0  0
    9.7411  -10.5583    0.4578 C   0  0
   10.5175  -10.9293    1.5552 C   0  0
   11.9152  -10.8641    1.4835 C   0  0
   12.5493  -10.4179    0.3165 C   0  0
   11.7536  -10.0128   -0.7662 C   0  0
   10.3596  -10.0782   -0.6929 C   0  0
   14.0590  -10.3098    0.2301 C   0  0
   14.8375  -11.6339    0.4440 C   0  0  2  0  0  0
   16.3564  -11.3748    0.3671 C   0  0
   14.3820  -12.7034   -0.3861 O   0  0
   14.4940  -12.4891   -1.8013 C   0  0
   17.2079  -12.3401    0.7988 O   0  0
   16.8137  -10.3220   -0.0756 O   0  0
    1.3563  -15.3961    0.5683 C   0  0
    0.2996  -15.0787   -0.1959 C   0  0
   -0.9948  -15.7489   -0.0147 C   0  0
   -2.1833  -15.0083    0.0116 C   0  0
   -3.4081  -15.6660    0.1619 C   0  0
   -3.4642  -17.0514    0.2767 C   0  0
   -2.2824  -17.7812    0.2353 C   0  0
   -1.0577  -17.1446    0.0837 C   0  0
   -2.2659  -19.1397    0.3403 O   0  0
   -4.5855  -14.9692    0.2045 O   0  0
   16.8010  -13.6582    1.2223 C   0  0
   17.1538  -14.6540    0.1355 C   0  0
   14.1134  -13.4316   -3.9340 F   0  0
    2.2105  -12.8633   -0.1791 H   0  0
    3.5771  -16.8257    0.8899 H   0  0
    4.5350  -12.1207   -0.4829 H   0  0
    8.2321  -12.7324   -1.0340 H   0  0
    6.6765  -11.9446   -1.0388 H   0  0
    6.8806  -11.5466    1.4390 H   0  0
    8.4068  -12.4099    1.4789 H   0  0
   10.0518  -11.2468    2.4834 H   0  0
   12.5000  -11.1472    2.3560 H   0  0
   12.2112   -9.6292   -1.6757 H   0  0
    9.7576   -9.7502   -1.5358 H   0  0
   14.3316   -9.8741   -0.7397 H   0  0
   14.3846   -9.5712    0.9754 H   0  0
   14.6364  -11.9327    1.4798 H   0  0
   13.9732  -11.5747   -2.0941 H   0  0
   15.5527  -12.3820   -2.0597 H   0  0
    1.2516  -16.1255    1.3709 H   0  0
    0.3669  -14.3675   -1.0135 H   0  0
   -2.1263  -13.9269   -0.0746 H   0  0
   -4.4248  -17.5386    0.3958 H   0  0
   -0.1518  -17.7448    0.0369 H   0  0
   -3.1827  -19.4533    0.4252 H   0  0
   -4.3459  -14.0272    0.1668 H   0  0
   17.3718  -13.8877    2.1281 H   0  0
   15.7452  -13.7230    1.4886 H   0  0
   16.8873  -15.6705    0.4375 H   0  0
   18.2267  -14.6212   -0.0815 H   0  0
   16.6365  -14.4156   -0.7977 H   0  0
  1  3  1  0
  1 42  1  0
  2  1  1  0
  4  5  2  0
  4 43  1  0
  5  6  1  0
  5 30  1  0
  6  9  2  0
  6 44  1  0
  7  4  1  0
  7 45  1  0
  8  7  2  0
  8  9  1  0
  9 10  1  0
 10 11  1  0
 11 12  1  0
 11 13  2  0
 12  8  1  0
 12 14  1  0
 14 15  1  0
 14 46  1  0
 14 47  1  0
 15 16  1  0
 15 48  1  0
 15 49  1  0
 16 17  1  0
 17 18  2  0
 18 19  1  0
 18 50  1  0
 19 20  2  0
 19 51  1  0
 20 21  1  0
 20 23  1  0
 21 22  2  0
 21 52  1  0
 22 17  1  0
 22 53  1  0
 23 24  1  0
 23 54  1  0
 23 55  1  0
 24 25  1  0
 24 26  1  0
 24 56  1  0
 25 28  1  0
 25 29  2  0
 26 27  1  0
 27  1  1  0
 27 57  1  0
 27 58  1  0
 28 40  1  0
 30 31  2  0
 30 59  1  0
 31 32  1  0
 31 60  1  0
 32 33  2  0
 33 34  1  0
 33 61  1  0
 34 35  2  0
 34 39  1  0
 35 36  1  0
 35 62  1  0
 36 37  2  0
 36 38  1  0
 37 32  1  0
 37 63  1  0
 38 64  1  0
 39 65  1  0
 40 41  1  0
 40 66  1  0
 40 67  1  0
 41 68  1  0
 41 69  1  0
 41 70  1  0
M  END
> <Name>
CHEMBL4159869

> <Clean Energy>
48.585098

> <chembl_id>
CHEMBL4159869

> <chembl_pref_name>
None

> <efficacy>
1.14

> <Forcefield>
MMFF

> <ForcefieldBase>
MMFF

> <ForcefieldFFML>
<?xml version="1.0" encoding="UTF-8"?>
<!DOCTYPE ffml SYSTEM "Ffml.dtd">
<ffml version="1.0">
<forcefield name="MMFF" derivedFrom="MMFF" base="MMFF">
<atomTypes>
<atomType
name="C100"
element="C"
mass="12.011"
annotation=""/>
<atomType
name="F101"
element="F"
mass="18.998"
annotation=""/>
<atomType
name="S102"
element="S"
mass="32.066"
annotation=""/>
<atomType
name="N103"
element="N"
mass="14.007"
annotation=""/>
<atomType
name="O104"
element="O"
mass="16"
annotation=""/>
<atomType
name="H105"
element="H"
mass="1.008"
annotation=""/>
</atomTypes>
<parameters>
</parameters>
</forcefield>
</ffml>

> <Initial Potential Energy>
234.3223

> <Initial RMS Gradient>
28.74616

> <Minimization Criteria>
STEEPD> Minimization exiting with gradient tolerance ( 3.0000000) satisfied.

> <CHARMm Energy>
113.88488

> <Potential Energy>
113.88488

> <RMS Gradient>
0.02631

> <Bond Energy>
7.06243

> <Angle Energy>
31.35762

> <STRBend>
0.4469

> <Dihedral Energy>
11.00302

> <OOPLane>
0.15032

> <Van der Waals Energy>
69.11439

> <Electrostatic Energy>
-5.2498

> <Hydrogen Bond Energy>
0

> <Solvation Free Energy>
0

> <HasGasteigerCharges>
true

> <REMARK99>
REMARK  99  MacroMolecule created from Mol2 file
REMARK  99  CHEMBL4159869
REMARK  99  PROTEIN
REMARK  99  GASTEIGER
REMARK  99
REMARK  99

$$$$
CHEMBL4745787
  SciTegic05292516403D

 48 51  0  0  0  0            999 V2000
   15.9308   -8.9438   -1.0084 C   0  0
   15.7812  -10.3339   -0.9921 C   0  0
   16.9004  -11.1773   -0.8949 C   0  0
   17.2020   -8.3612   -0.9119 C   0  0
   18.3280   -9.1925   -0.8156 C   0  0
   18.1646  -10.5743   -0.8084 C   0  0
   19.4493  -11.0628   -0.7200 N   0  0
   20.3196   -9.9913   -0.6964 C   0  0
   19.6528   -8.8523   -0.7414 N   0  0
   19.8284  -12.4551   -0.6705 C   0  0
   21.8110  -10.1157   -0.6882 C   0  0
   22.1892  -10.8076    0.5057 O   0  0
   23.5278  -10.9607    0.7395 C   0  0
   23.8406  -11.5455    1.9716 C   0  0
   25.1672  -11.7799    2.3398 C   0  0
   26.1995  -11.4226    1.4759 C   0  0
   25.8919  -10.8218    0.2500 C   0  0
   24.5593  -10.6033   -0.1272 C   0  0
   26.9586  -10.4388   -0.7008 C   0  0
   28.0037   -9.8288   -0.1044 O   0  0
   26.8716  -10.6256   -1.9011 O   0  0
   14.5711  -10.9846   -1.1447 O   0  0
   13.4293  -10.3293   -0.7676 C   0  0
   13.1713   -9.9907    0.5586 C   0  0
   11.9616   -9.3688    0.8848 C   0  0
   11.0492   -9.1478   -0.1453 C   0  0
   11.2680   -9.4798   -1.4391 N   0  0
   12.4514  -10.0744   -1.7178 C   0  0
   11.6256   -9.0162    2.2991 C   0  0
   15.0730   -8.2858   -1.1160 H   0  0
   16.7779  -12.2550   -0.9057 H   0  0
   17.3254   -7.2838   -0.9347 H   0  0
   20.6913  -12.6167   -1.3209 H   0  0
   19.0030  -13.0788   -1.0202 H   0  0
   20.0726  -12.7058    0.3647 H   0  0
   22.1351  -10.6713   -1.5759 H   0  0
   22.2513   -9.1114   -0.6979 H   0  0
   23.0393  -11.8273    2.6521 H   0  0
   25.3886  -12.2516    3.2945 H   0  0
   27.2281  -11.6423    1.7516 H   0  0
   24.3690  -10.1579   -1.0996 H   0  0
   27.8530   -9.5930    0.8305 H   0  0
   13.9051  -10.2156    1.3280 H   0  0
   10.0814   -8.6875    0.0459 H   0  0
   12.5981  -10.3487   -2.7581 H   0  0
   11.1045   -9.8496    2.7800 H   0  0
   10.9862   -8.1281    2.3385 H   0  0
   12.5317   -8.7896    2.8709 H   0  0
  1  2  2  0
  1 30  1  0
  2  3  1  0
  2 22  1  0
  3  6  2  0
  3 31  1  0
  4  1  1  0
  4 32  1  0
  5  4  2  0
  5  6  1  0
  6  7  1  0
  7  8  1  0
  7 10  1  0
  8  9  2  0
  8 11  1  0
  9  5  1  0
 10 33  1  0
 10 34  1  0
 10 35  1  0
 11 12  1  0
 11 36  1  0
 11 37  1  0
 12 13  1  0
 13 14  2  0
 14 15  1  0
 14 38  1  0
 15 16  2  0
 15 39  1  0
 16 17  1  0
 16 40  1  0
 17 18  2  0
 17 19  1  0
 18 13  1  0
 18 41  1  0
 19 20  1  0
 19 21  2  0
 20 42  1  0
 22 23  1  0
 23 24  2  0
 24 25  1  0
 24 43  1  0
 25 26  2  0
 25 29  1  0
 26 27  1  0
 26 44  1  0
 27 28  2  0
 28 23  1  0
 28 45  1  0
 29 46  1  0
 29 47  1  0
 29 48  1  0
M  END
> <Name>
CHEMBL4745787

> <Clean Energy>
32.104698

> <chembl_id>
CHEMBL4745787

> <chembl_pref_name>
None

> <efficacy>
1.04

> <Forcefield>
MMFF

> <ForcefieldBase>
MMFF

> <ForcefieldFFML>
<?xml version="1.0" encoding="UTF-8"?>
<!DOCTYPE ffml SYSTEM "Ffml.dtd">
<ffml version="1.0">
<forcefield name="MMFF" derivedFrom="MMFF" base="MMFF">
<atomTypes>
<atomType
name="C100"
element="C"
mass="12.011"
annotation=""/>
<atomType
name="N101"
element="N"
mass="14.007"
annotation=""/>
<atomType
name="O102"
element="O"
mass="16"
annotation=""/>
<atomType
name="H103"
element="H"
mass="1.008"
annotation=""/>
</atomTypes>
<parameters>
</parameters>
</forcefield>
</ffml>

> <Initial Potential Energy>
205.95039

> <Initial RMS Gradient>
46.38194

> <Minimization Criteria>
CONJUG> Minimization exiting with gradient tolerance ( 0.0100000) satisfied.

> <CHARMm Energy>
77.79672

> <Potential Energy>
77.79672

> <RMS Gradient>
0.00965

> <Bond Energy>
4.64619

> <Angle Energy>
16.96368

> <STRBend>
0.20821

> <Dihedral Energy>
10.0533

> <OOPLane>
0.163

> <Van der Waals Energy>
57.79461

> <Electrostatic Energy>
-12.03228

> <Hydrogen Bond Energy>
0

> <Solvation Free Energy>
0

> <HasGasteigerCharges>
true

> <REMARK99>
REMARK  99  MacroMolecule created from Mol2 file
REMARK  99  CHEMBL4745787
REMARK  99  PROTEIN
REMARK  99  GASTEIGER
REMARK  99
REMARK  99

$$$$
CHEMBL1935612
  SciTegic05292516403D

 74 76  0  0  0  0            999 V2000
    6.2737   -7.7697   -0.2875 N   0  0
    7.4984   -8.2621    0.1598 C   0  0
    8.7588   -7.7380   -0.5083 C   0  0
    7.5389   -9.0831    1.0755 O   0  0
   10.0256   -8.2459    0.1788 C   0  0
   11.2780   -7.6913   -0.4976 C   0  0
   12.5231   -8.1852    0.1793 C   0  0
   13.4137   -7.3891    0.7837 C   0  0
    1.2313   -6.8263   -0.9149 C   0  0
    1.3414   -7.5178    0.2893 C   0  0
    2.6005   -7.9853    0.6932 C   0  0
    2.3645   -6.6150   -1.7071 C   0  0
    3.6212   -7.0828   -1.3000 C   0  0
    3.7516   -7.7705   -0.0893 C   0  0
    5.0757   -8.3630    0.3274 C   0  0
    6.1051   -6.7615   -1.3626 C   0  0  1  0  0  0
    4.8258   -6.9254   -2.1828 C   0  0
    6.2362   -5.3203   -0.8419 C   0  0
    6.4280   -5.2246    0.4953 O   0  0
    6.2752   -4.3389   -1.5733 O   0  0
    0.3067   -7.8146    1.1383 O   0  0
   -0.9945   -7.3112    0.7939 C   0  0
   -1.9937   -7.7207    1.8815 C   0  0
   -3.3134   -7.0357    1.7685 C   0  0
   -3.6281   -5.7155    1.9893 C   0  0
   -4.9655   -5.5643    1.7896 O   0  0
   -5.4549   -6.8240    1.4814 C   0  0
   -4.4709   -7.7203    1.4485 N   0  0
   -2.8723   -4.5115    2.3744 C   0  0
   -6.8398   -7.0397    1.2337 C   0  0
   -7.3301   -8.2570    0.9509 C   0  0
   -8.7814   -8.5353    0.6843 C   0  0
   -8.9894   -9.0713   -0.7359 C   0  0
  -10.4390   -9.5086   -1.0193 C   0  0
  -10.5211  -10.1700   -2.3975 C   0  0
  -11.4264   -8.3429   -0.9480 C   0  0
    8.7555   -8.0666   -1.5536 H   0  0
    8.7484   -6.6437   -0.4826 H   0  0
   10.0123   -7.9536    1.2370 H   0  0
   10.0434   -9.3434    0.1567 H   0  0
   11.3049   -8.0059   -1.5477 H   0  0
   11.2456   -6.5948   -0.4947 H   0  0
   12.6994   -9.2592    0.1665 H   0  0
   13.2839   -6.3120    0.8238 H   0  0
   14.2951   -7.8062    1.2594 H   0  0
    0.2795   -6.4513   -1.2779 H   0  0
    2.6786   -8.5423    1.6260 H   0  0
    2.2576   -6.0898   -2.6543 H   0  0
    5.1856   -8.2721    1.4154 H   0  0
    5.0766   -9.4320    0.0799 H   0  0
    6.9502   -6.8764   -2.0502 H   0  0
    4.9022   -7.8270   -2.8041 H   0  0
    4.6937   -6.0725   -2.8591 H   0  0
    6.1879   -6.0699    0.9322 H   0  0
   -0.9490   -6.2177    0.7219 H   0  0
   -1.3181   -7.7270   -0.1683 H   0  0
   -2.1311   -8.8087    1.8515 H   0  0
   -1.5642   -7.5090    2.8692 H   0  0
   -3.4541   -3.8893    3.0615 H   0  0
   -2.6320   -3.9150    1.4892 H   0  0
   -1.9353   -4.7775    2.8731 H   0  0
   -7.4860   -6.1711    1.2816 H   0  0
   -6.6560   -9.1128    0.9132 H   0  0
   -9.1319   -9.2732    1.4154 H   0  0
   -9.3735   -7.6262    0.8365 H   0  0
   -8.6843   -8.3081   -1.4641 H   0  0
   -8.3259   -9.9325   -0.8923 H   0  0
  -10.7341  -10.2551   -0.2711 H   0  0
  -11.5379  -10.5225   -2.6006 H   0  0
   -9.8520  -11.0351   -2.4549 H   0  0
  -10.2398   -9.4701   -3.1918 H   0  0
  -12.4347   -8.6710   -1.2229 H   0  0
  -11.1371   -7.5352   -1.6288 H   0  0
  -11.4861   -7.9318    0.0641 H   0  0
  1  2  1  0
  1 16  1  0
  2  3  1  0
  2  4  2  0
  3  5  1  0
  3 37  1  0
  3 38  1  0
  5  6  1  0
  5 39  1  0
  5 40  1  0
  6  7  1  0
  6 41  1  0
  6 42  1  0
  7  8  2  0
  7 43  1  0
  8 44  1  0
  8 45  1  0
  9 10  2  0
  9 46  1  0
 10 11  1  0
 10 21  1  0
 11 14  2  0
 11 47  1  0
 12  9  1  0
 12 48  1  0
 13 12  2  0
 13 14  1  0
 13 17  1  0
 14 15  1  0
 15  1  1  0
 15 49  1  0
 15 50  1  0
 16 17  1  0
 16 18  1  0
 16 51  1  0
 17 52  1  0
 17 53  1  0
 18 19  1  0
 18 20  2  0
 19 54  1  0
 21 22  1  0
 22 23  1  0
 22 55  1  0
 22 56  1  0
 23 24  1  0
 23 57  1  0
 23 58  1  0
 24 25  2  0
 25 26  1  0
 25 29  1  0
 26 27  1  0
 27 28  2  0
 27 30  1  0
 28 24  1  0
 29 59  1  0
 29 60  1  0
 29 61  1  0
 30 31  2  0
 30 62  1  0
 31 32  1  0
 31 63  1  0
 32 33  1  0
 32 64  1  0
 32 65  1  0
 33 34  1  0
 33 66  1  0
 33 67  1  0
 34 35  1  0
 34 36  1  0
 34 68  1  0
 35 69  1  0
 35 70  1  0
 35 71  1  0
 36 72  1  0
 36 73  1  0
 36 74  1  0
M  END
> <Name>
CHEMBL1935612

> <Clean Energy>
61.765598

> <chembl_id>
CHEMBL1935612

> <chembl_pref_name>
None

> <efficacy>
1.115789474

> <Forcefield>
MMFF

> <ForcefieldBase>
MMFF

> <ForcefieldFFML>
<?xml version="1.0" encoding="UTF-8"?>
<!DOCTYPE ffml SYSTEM "Ffml.dtd">
<ffml version="1.0">
<forcefield name="MMFF" derivedFrom="MMFF" base="MMFF">
<atomTypes>
<atomType
name="N100"
element="N"
mass="14.007"
annotation=""/>
<atomType
name="C101"
element="C"
mass="12.011"
annotation=""/>
<atomType
name="O102"
element="O"
mass="16"
annotation=""/>
<atomType
name="H103"
element="H"
mass="1.008"
annotation=""/>
</atomTypes>
<parameters>
</parameters>
</forcefield>
</ffml>

> <Initial Potential Energy>
132.45063

> <Initial RMS Gradient>
20.31735

> <Minimization Criteria>
CONJUG> Minimization exiting with gradient tolerance ( 0.0100000) satisfied.

> <CHARMm Energy>
36.51832

> <Potential Energy>
36.51832

> <RMS Gradient>
0.00961

> <Bond Energy>
6.92816

> <Angle Energy>
18.5892

> <STRBend>
0.19565

> <Dihedral Energy>
-14.31265

> <OOPLane>
0.32354

> <Van der Waals Energy>
53.09041

> <Electrostatic Energy>
-28.29599

> <Hydrogen Bond Energy>
0

> <Solvation Free Energy>
0

> <HasGasteigerCharges>
true

> <REMARK99>
REMARK  99  MacroMolecule created from Mol2 file
REMARK  99  CHEMBL1935612
REMARK  99  PROTEIN
REMARK  99  GASTEIGER
REMARK  99
REMARK  99

$$$$
CHEMBL443910
  SciTegic05292516403D

 51 54  0  0  0  0            999 V2000
   15.2434   -6.0355   -1.3824 C   0  0
   15.0723   -7.1641   -0.5764 C   0  0
   16.1048   -7.5901    0.2588 C   0  0
   16.4286   -5.2974   -1.3139 C   0  0
   17.4551   -5.7058   -0.4610 C   0  0
   17.2823   -6.8528    0.3106 C   0  0
   18.2882   -7.2854    1.1974 O   0  0
   19.5855   -6.7764    1.1243 C   0  0
   19.8629   -5.9035   -0.0681 C   0  0  1  0  0  0
   18.7227   -4.9296   -0.3146 C   0  0
   21.1301   -5.1189    0.1203 C   0  0
   22.1928   -5.8080   -0.3752 O   0  0
   21.1838   -4.0089    0.6336 O   0  0
   23.4540   -5.1584   -0.1867 C   0  0
   20.4516   -7.1058    1.9341 O   0  0
   13.9391   -7.9294   -0.5610 O   0  0
   12.7104   -7.1953   -0.6735 C   0  0
   11.6494   -7.9419    0.1265 C   0  0
   10.3846   -7.1764    0.2938 C   0  0
   10.1573   -6.0085    0.9903 C   0  0
    8.8268   -5.7169    0.8989 O   0  0
    8.2919   -6.7437    0.1575 C   0  0
    9.1952   -7.6242   -0.2427 N   0  0
   10.9989   -5.0777    1.7641 C   0  0
    6.8475   -6.7211   -0.0638 C   0  0
    6.0374   -5.6830    0.4276 C   0  0
    4.6549   -5.6907    0.2128 C   0  0
    4.0743   -6.7360   -0.4949 C   0  0
    4.8515   -7.7746   -0.9925 C   0  0
    6.2347   -7.7663   -0.7770 C   0  0
    2.7497   -6.7409   -0.6994 F   0  0
   14.4710   -5.7179   -2.0761 H   0  0
   15.9765   -8.4744    0.8761 H   0  0
   16.5395   -4.4088   -1.9313 H   0  0
   19.9844   -6.5585   -0.9419 H   0  0
   18.9224   -4.3388   -1.2170 H   0  0
   18.6010   -4.2269    0.5201 H   0  0
   24.2327   -5.8028   -0.6037 H   0  0
   23.6545   -5.0164    0.8797 H   0  0
   23.4728   -4.2012   -0.7170 H   0  0
   12.8212   -6.1774   -0.2780 H   0  0
   12.4241   -7.1337   -1.7299 H   0  0
   11.4443   -8.9047   -0.3578 H   0  0
   12.0469   -8.1947    1.1181 H   0  0
   10.4369   -4.6407    2.5953 H   0  0
   11.3524   -4.2650    1.1225 H   0  0
   11.8712   -5.5901    2.1812 H   0  0
    6.4759   -4.8579    0.9850 H   0  0
    4.0328   -4.8880    0.5951 H   0  0
    4.3810   -8.5835   -1.5427 H   0  0
    6.8403   -8.5844   -1.1659 H   0  0
  1  2  2  0
  1 32  1  0
  2  3  1  0
  2 16  1  0
  3  6  2  0
  3 33  1  0
  4  1  1  0
  4 34  1  0
  5  4  2  0
  5  6  1  0
  5 10  1  0
  6  7  1  0
  7  8  1  0
  8  9  1  0
  8 15  2  0
  9 10  1  0
  9 11  1  0
  9 35  1  0
 10 36  1  0
 10 37  1  0
 11 12  1  0
 11 13  2  0
 12 14  1  0
 14 38  1  0
 14 39  1  0
 14 40  1  0
 16 17  1  0
 17 18  1  0
 17 41  1  0
 17 42  1  0
 18 19  1  0
 18 43  1  0
 18 44  1  0
 19 20  2  0
 20 21  1  0
 20 24  1  0
 21 22  1  0
 22 23  2  0
 22 25  1  0
 23 19  1  0
 24 45  1  0
 24 46  1  0
 24 47  1  0
 25 26  2  0
 26 27  1  0
 26 48  1  0
 27 28  2  0
 27 49  1  0
 28 29  1  0
 28 31  1  0
 29 30  2  0
 29 50  1  0
 30 25  1  0
 30 51  1  0
M  END
> <Name>
CHEMBL443910

> <Clean Energy>
33.8009

> <chembl_id>
CHEMBL443910

> <chembl_pref_name>
None

> <efficacy>
1.73

> <Forcefield>
MMFF

> <ForcefieldBase>
MMFF

> <ForcefieldFFML>
<?xml version="1.0" encoding="UTF-8"?>
<!DOCTYPE ffml SYSTEM "Ffml.dtd">
<ffml version="1.0">
<forcefield name="MMFF" derivedFrom="MMFF" base="MMFF">
<atomTypes>
<atomType
name="C100"
element="C"
mass="12.011"
annotation=""/>
<atomType
name="O101"
element="O"
mass="16"
annotation=""/>
<atomType
name="N102"
element="N"
mass="14.007"
annotation=""/>
<atomType
name="F103"
element="F"
mass="18.998"
annotation=""/>
<atomType
name="H104"
element="H"
mass="1.008"
annotation=""/>
</atomTypes>
<parameters>
</parameters>
</forcefield>
</ffml>

> <Initial Potential Energy>
80.38384

> <Initial RMS Gradient>
25.87793

> <Minimization Criteria>
STEEPD> Minimization exiting with gradient tolerance ( 3.0000000) satisfied.

> <CHARMm Energy>
15.3727

> <Potential Energy>
15.3727

> <RMS Gradient>
0.10925

> <Bond Energy>
4.61615

> <Angle Energy>
16.48662

> <STRBend>
-0.45031

> <Dihedral Energy>
3.51161

> <OOPLane>
0.2141

> <Van der Waals Energy>
50.57609

> <Electrostatic Energy>
-59.58156

> <Hydrogen Bond Energy>
0

> <Solvation Free Energy>
0

> <HasGasteigerCharges>
true

> <REMARK99>
REMARK  99  MacroMolecule created from Mol2 file
REMARK  99  CHEMBL443910
REMARK  99  PROTEIN
REMARK  99  GASTEIGER
REMARK  99
REMARK  99

$$$$
CHEMBL5075917
  SciTegic05292516403D

 60 62  0  0  0  0            999 V2000
   36.1470  -14.1626    0.8702 C   0  0
   36.2379  -13.3740   -0.4516 C   0  0
   36.9923  -14.2197   -1.4901 C   0  0
   32.2024  -12.5833    1.2925 C   0  0
   31.4885  -13.7716    1.0925 C   0  0
   31.9293  -14.6720    0.1163 C   0  0
   33.0861  -14.4141   -0.6322 C   0  0
   33.8334  -13.2551   -0.3587 C   0  0
   33.3623  -12.3000    0.5568 C   0  0
   34.0480  -10.9822    0.7735 C   0  0
   33.5114  -15.4032   -1.6795 C   0  0
   34.9773  -13.0368   -1.0770 O   0  0
   37.0512  -12.0700   -0.2730 C   0  0
   38.2075  -12.2029    0.4200 O   0  0
   36.7459  -10.9793   -0.7365 O   0  0
   30.2092  -14.0275    1.8506 C   0  0
   29.0804  -13.4294    1.1819 N   0  0
   28.5913  -12.1351    1.4023 C   0  0
   27.5828  -11.9669    0.4677 N   0  0
   27.5625  -13.1291   -0.2239 C   0  0
   28.4172  -14.0314    0.1447 N   0  0
   29.0011  -11.3676    2.2612 O   0  0
   26.7608  -10.8323    0.2687 C   0  0
   27.0070   -9.6251    0.9346 C   0  0
   26.1903   -8.5034    0.7384 C   0  0
   25.0913   -8.5535   -0.1256 C   0  0
   24.8394   -9.7540   -0.7965 C   0  0
   25.6638  -10.8730   -0.6054 C   0  0
   24.2188   -7.3267   -0.3164 C   0  0
   24.2589   -6.8282   -1.7631 C   0  0
   22.7780   -7.5854    0.1314 C   0  0
   35.5103  -15.0479    0.7734 H   0  0
   35.7391  -13.5447    1.6772 H   0  0
   37.1263  -14.5180    1.2072 H   0  0
   37.0770  -13.6831   -2.4427 H   0  0
   36.4588  -15.1519   -1.7017 H   0  0
   38.0043  -14.4749   -1.1582 H   0  0
   31.8301  -11.8540    2.0122 H   0  0
   31.3499  -15.5734   -0.0791 H   0  0
   33.3986  -10.2795    1.3075 H   0  0
   34.2887  -10.5146   -0.1855 H   0  0
   34.9532  -11.1157    1.3713 H   0  0
   34.2394  -16.1039   -1.2605 H   0  0
   33.9501  -14.8982   -2.5460 H   0  0
   32.6543  -15.9761   -2.0498 H   0  0
   38.4815  -13.1022    0.6760 H   0  0
   30.0265  -15.1028    1.9581 H   0  0
   30.2910  -13.6099    2.8609 H   0  0
   26.8592  -13.2688   -1.0513 H   0  0
   27.8492   -9.5089    1.6119 H   0  0
   26.4300   -7.5857    1.2732 H   0  0
   23.9971   -9.8363   -1.4801 H   0  0
   25.3930  -11.7716   -1.1504 H   0  0
   24.6111   -6.5178    0.3141 H   0  0
   23.6918   -5.8966   -1.8651 H   0  0
   23.8293   -7.5566   -2.4595 H   0  0
   25.2887   -6.6302   -2.0806 H   0  0
   22.1838   -6.6676    0.0648 H   0  0
   22.7472   -7.9300    1.1711 H   0  0
   22.2866   -8.3448   -0.4865 H   0  0
  1 32  1  0
  1 33  1  0
  1 34  1  0
  2  1  1  0
  2 13  1  0
  3  2  1  0
  3 35  1  0
  3 36  1  0
  3 37  1  0
  4  5  2  0
  4 38  1  0
  5  6  1  0
  5 16  1  0
  6  7  2  0
  6 39  1  0
  7  8  1  0
  7 11  1  0
  8  9  2  0
  8 12  1  0
  9  4  1  0
  9 10  1  0
 10 40  1  0
 10 41  1  0
 10 42  1  0
 11 43  1  0
 11 44  1  0
 11 45  1  0
 12  2  1  0
 13 14  1  0
 13 15  2  0
 14 46  1  0
 16 17  1  0
 16 47  1  0
 16 48  1  0
 17 18  1  0
 18 19  1  0
 18 22  2  0
 19 20  1  0
 19 23  1  0
 20 21  2  0
 20 49  1  0
 21 17  1  0
 23 24  2  0
 24 25  1  0
 24 50  1  0
 25 26  2  0
 25 51  1  0
 26 27  1  0
 26 29  1  0
 27 28  2  0
 27 52  1  0
 28 23  1  0
 28 53  1  0
 29 30  1  0
 29 31  1  0
 29 54  1  0
 30 55  1  0
 30 56  1  0
 30 57  1  0
 31 58  1  0
 31 59  1  0
 31 60  1  0
M  END
> <Name>
CHEMBL5075917

> <Clean Energy>
62.786598

> <chembl_id>
CHEMBL5075917

> <chembl_pref_name>
None

> <efficacy>
1.34

> <Forcefield>
MMFF

> <ForcefieldBase>
MMFF

> <ForcefieldFFML>
<?xml version="1.0" encoding="UTF-8"?>
<!DOCTYPE ffml SYSTEM "Ffml.dtd">
<ffml version="1.0">
<forcefield name="MMFF" derivedFrom="MMFF" base="MMFF">
<atomTypes>
<atomType
name="C100"
element="C"
mass="12.011"
annotation=""/>
<atomType
name="O101"
element="O"
mass="16"
annotation=""/>
<atomType
name="N102"
element="N"
mass="14.007"
annotation=""/>
<atomType
name="H103"
element="H"
mass="1.008"
annotation=""/>
</atomTypes>
<parameters>
</parameters>
</forcefield>
</ffml>

> <Initial Potential Energy>
227.6937

> <Initial RMS Gradient>
28.85546

> <Minimization Criteria>
CONJUG> Minimization exiting with gradient tolerance ( 0.0100000) satisfied.

> <CHARMm Energy>
101.77024

> <Potential Energy>
101.77024

> <RMS Gradient>
0.0099

> <Bond Energy>
7.31313

> <Angle Energy>
29.25172

> <STRBend>
-0.02579

> <Dihedral Energy>
7.07321

> <OOPLane>
0.16765

> <Van der Waals Energy>
58.71332

> <Electrostatic Energy>
-0.72301

> <Hydrogen Bond Energy>
0

> <Solvation Free Energy>
0

> <HasGasteigerCharges>
true

> <REMARK99>
REMARK  99  MacroMolecule created from Mol2 file
REMARK  99  CHEMBL5075917
REMARK  99  PROTEIN
REMARK  99  GASTEIGER
REMARK  99
REMARK  99

$$$$
CHEMBL3597426
  SciTegic05292516403D

 60 63  0  0  0  0            999 V2000
   -2.1988    0.9222    0.1422 C   0  0
   -2.4335   -0.4012   -0.2243 C   0  0
   -1.3832   -1.2434   -0.5934 C   0  0
   -0.8861    1.4180    0.1945 C   0  0
    0.1948    0.5926   -0.1841 C   0  0
   -0.0876   -0.7162   -0.5740 C   0  0
    1.1068   -1.3074   -0.9051 N   0  0
    2.1315   -0.4155   -0.7498 C   0  0
    1.6147    0.7780   -0.2840 C   0  0
    2.4071    2.0133    0.0225 C   0  0
    3.4239    1.7580    1.1180 C   0  0
    2.8870    1.7218    2.3647 O   0  0
    4.6065    1.5023    0.9211 O   0  0
   -3.3270    1.6525    0.4291 O   0  0
   -3.1544    3.0671    0.3823 C   0  0
   -4.5105    3.7602    0.3439 C   0  0
   -4.3000    5.2656    0.2413 C   0  0
   -5.5566    5.9333    0.1733 O   0  0
   -5.5144    7.3008    0.0929 C   0  0
   -6.7628    7.9242    0.0666 C   0  0
   -6.8472    9.3116   -0.0117 C   0  0
   -5.6780   10.0763   -0.0701 C   0  0
   -4.4231    9.4660   -0.0522 C   0  0
   -4.3502    8.0760    0.0336 C   0  0
   -3.3530   10.3196   -0.1235 O   0  0
   -2.0470    9.7280   -0.1420 C   0  0
   -0.9885   10.8122   -0.2060 C   0  0
    0.2083   10.5589   -0.8906 C   0  0
    1.2528   11.4858   -0.8817 C   0  0
    1.1256   12.6915   -0.1816 C   0  0
   -0.0762   12.9550    0.4910 C   0  0
   -1.1199   12.0226    0.4851 C   0  0
    2.2727   13.6755   -0.1601 C   0  0
    3.4660   13.0406    0.0397 F   0  0
    2.1782   14.6116    0.8236 F   0  0
    2.4030   14.3612   -1.3278 F   0  0
   -3.4542   -0.7777   -0.2448 H   0  0
   -1.5759   -2.2677   -0.8950 H   0  0
   -0.6758    2.4305    0.5081 H   0  0
    1.2029   -2.2605   -1.2264 H   0  0
    3.1498   -0.7115   -0.9704 H   0  0
    2.9469    2.3429   -0.8732 H   0  0
    1.7672    2.8507    0.3199 H   0  0
    1.9511    2.0113    2.3674 H   0  0
   -2.6067    3.3935    1.2750 H   0  0
   -2.5946    3.3533   -0.5179 H   0  0
   -5.1044    3.3968   -0.5036 H   0  0
   -5.0978    3.5109    1.2358 H   0  0
   -3.7456    5.6065    1.1249 H   0  0
   -3.7212    5.4803   -0.6659 H   0  0
   -7.6762    7.3302    0.1050 H   0  0
   -7.8214    9.7952   -0.0310 H   0  0
   -5.7484   11.1595   -0.1359 H   0  0
   -3.3830    7.5966    0.0538 H   0  0
   -1.8768    9.1491    0.7739 H   0  0
   -1.9576    9.0839   -1.0253 H   0  0
    0.3480    9.6172   -1.4196 H   0  0
    2.1801   11.2276   -1.3935 H   0  0
   -0.2031   13.8929    1.0334 H   0  0
   -2.0379   12.2489    1.0274 H   0  0
  1  2  2  0
  1 14  1  0
  2  3  1  0
  2 37  1  0
  3  6  2  0
  3 38  1  0
  4  1  1  0
  4 39  1  0
  5  4  2  0
  5  6  1  0
  6  7  1  0
  7  8  1  0
  7 40  1  0
  8  9  2  0
  8 41  1  0
  9  5  1  0
  9 10  1  0
 10 11  1  0
 10 42  1  0
 10 43  1  0
 11 12  1  0
 11 13  2  0
 12 44  1  0
 14 15  1  0
 15 16  1  0
 15 45  1  0
 15 46  1  0
 16 17  1  0
 16 47  1  0
 16 48  1  0
 17 18  1  0
 17 49  1  0
 17 50  1  0
 18 19  1  0
 19 20  2  0
 20 21  1  0
 20 51  1  0
 21 22  2  0
 21 52  1  0
 22 23  1  0
 22 53  1  0
 23 24  2  0
 23 25  1  0
 24 19  1  0
 24 54  1  0
 25 26  1  0
 26 27  1  0
 26 55  1  0
 26 56  1  0
 27 28  2  0
 28 29  1  0
 28 57  1  0
 29 30  2  0
 29 58  1  0
 30 31  1  0
 30 33  1  0
 31 32  2  0
 31 59  1  0
 32 27  1  0
 32 60  1  0
 33 34  1  0
 33 35  1  0
 33 36  1  0
M  END
> <Name>
CHEMBL3597426

> <Clean Energy>
33.4562

> <chembl_id>
CHEMBL3597426

> <chembl_pref_name>
None

> <efficacy>
1.003

> <Forcefield>
MMFF

> <ForcefieldBase>
MMFF

> <ForcefieldFFML>
<?xml version="1.0" encoding="UTF-8"?>
<!DOCTYPE ffml SYSTEM "Ffml.dtd">
<ffml version="1.0">
<forcefield name="MMFF" derivedFrom="MMFF" base="MMFF">
<atomTypes>
<atomType
name="C100"
element="C"
mass="12.011"
annotation=""/>
<atomType
name="N101"
element="N"
mass="14.007"
annotation=""/>
<atomType
name="O102"
element="O"
mass="16"
annotation=""/>
<atomType
name="F103"
element="F"
mass="18.998"
annotation=""/>
<atomType
name="H104"
element="H"
mass="1.008"
annotation=""/>
</atomTypes>
<parameters>
</parameters>
</forcefield>
</ffml>

> <Initial Potential Energy>
170.72797

> <Initial RMS Gradient>
29.53131

> <Minimization Criteria>
CONJUG> Minimization exiting with gradient tolerance ( 0.0100000) satisfied.

> <CHARMm Energy>
73.23737

> <Potential Energy>
73.23737

> <RMS Gradient>
0.00914

> <Bond Energy>
5.86546

> <Angle Energy>
19.98432

> <STRBend>
-0.41362

> <Dihedral Energy>
-0.87949

> <OOPLane>
0.27159

> <Van der Waals Energy>
65.03122

> <Electrostatic Energy>
-16.62211

> <Hydrogen Bond Energy>
0

> <Solvation Free Energy>
0

> <HasGasteigerCharges>
true

> <REMARK99>
REMARK  99  MacroMolecule created from Mol2 file
REMARK  99  CHEMBL3597426
REMARK  99  PROTEIN
REMARK  99  GASTEIGER
REMARK  99
REMARK  99

$$$$
CHEMBL3597404
  SciTegic05292516403D

 60 63  0  0  0  0            999 V2000
   -2.0667    1.3767    0.3226 C   0  0
   -2.5240    0.0626    0.2280 C   0  0
   -1.6608   -0.9919   -0.0777 C   0  0
   -0.7050    1.6615    0.1517 C   0  0
    0.1951    0.6127   -0.1564 C   0  0
   -0.3130   -0.6817   -0.2737 C   0  0
    0.7333   -1.5057   -0.6086 N   0  0
    1.8904   -0.7841   -0.6959 C   0  0
    1.6092    0.5378   -0.4000 C   0  0
    2.5964    1.6680   -0.3761 C   0  0
    3.8950    1.3314    0.3339 C   0  0
    3.7481    0.6995    1.5251 O   0  0
    5.0034    1.6322   -0.0930 O   0  0
   -3.0440    2.2910    0.6082 O   0  0
   -2.7741    3.6564    0.3025 C   0  0
   -4.1105    4.3879    0.3308 C   0  0
   -3.9448    5.8804    0.0957 C   0  0
   -5.2434    6.4748    0.0865 O   0  0
   -5.2847    7.8408    0.0341 C   0  0
   -6.5619    8.3925    0.1337 C   0  0
   -6.7372    9.7773    0.1106 C   0  0
   -5.6371   10.6259   -0.0170 C   0  0
   -4.3599   10.0751   -0.1309 C   0  0
   -4.1828    8.6861   -0.1046 C   0  0
   -5.9388   11.9595   -0.0131 O   0  0
   -4.8405   12.8638   -0.1250 C   0  0
   -5.3066   14.3021   -0.0620 C   0  0
   -4.4014   15.3004    0.3286 C   0  0
   -4.7860   16.6435    0.3610 C   0  0
   -6.0843   17.0196    0.0052 C   0  0
   -6.9827   16.0311   -0.4104 C   0  0
   -6.5980   14.6867   -0.4454 C   0  0
   -6.4909   18.4641    0.0098 C   0  0
   -3.5806   -0.1500    0.3804 H   0  0
   -2.0340   -2.0068   -0.1664 H   0  0
   -0.3240    2.6699    0.2501 H   0  0
    0.6448   -2.4978   -0.7784 H   0  0
    2.8199   -1.2725   -0.9617 H   0  0
    2.8362    1.9410   -1.4104 H   0  0
    2.1751    2.5519    0.1138 H   0  0
    2.8096    0.5148    1.7350 H   0  0
   -2.0974    4.0731    1.0573 H   0  0
   -2.3262    3.7542   -0.6940 H   0  0
   -4.7873    3.9596   -0.4201 H   0  0
   -4.6162    4.2150    1.2897 H   0  0
   -3.3363    6.2995    0.9068 H   0  0
   -3.4538    6.0510   -0.8699 H   0  0
   -7.4229    7.7365    0.2373 H   0  0
   -7.7368   10.1956    0.1969 H   0  0
   -3.4761   10.6942   -0.2396 H   0  0
   -3.1704    8.2996   -0.1928 H   0  0
   -4.1447   12.6925    0.7058 H   0  0
   -4.3309   12.7193   -1.0855 H   0  0
   -3.3829   15.0438    0.6108 H   0  0
   -4.0609   17.3940    0.6663 H   0  0
   -7.9924   16.3022   -0.7127 H   0  0
   -7.3213   13.9447   -0.7761 H   0  0
   -7.5354   18.5709    0.3210 H   0  0
   -6.3715   18.8898   -0.9914 H   0  0
   -5.8815   19.0421    0.7126 H   0  0
  1  2  2  0
  1 14  1  0
  2  3  1  0
  2 34  1  0
  3  6  2  0
  3 35  1  0
  4  1  1  0
  4 36  1  0
  5  4  2  0
  5  6  1  0
  6  7  1  0
  7  8  1  0
  7 37  1  0
  8  9  2  0
  8 38  1  0
  9  5  1  0
  9 10  1  0
 10 11  1  0
 10 39  1  0
 10 40  1  0
 11 12  1  0
 11 13  2  0
 12 41  1  0
 14 15  1  0
 15 16  1  0
 15 42  1  0
 15 43  1  0
 16 17  1  0
 16 44  1  0
 16 45  1  0
 17 18  1  0
 17 46  1  0
 17 47  1  0
 18 19  1  0
 19 20  2  0
 20 21  1  0
 20 48  1  0
 21 22  2  0
 21 49  1  0
 22 23  1  0
 22 25  1  0
 23 24  2  0
 23 50  1  0
 24 19  1  0
 24 51  1  0
 25 26  1  0
 26 27  1  0
 26 52  1  0
 26 53  1  0
 27 28  2  0
 28 29  1  0
 28 54  1  0
 29 30  2  0
 29 55  1  0
 30 31  1  0
 30 33  1  0
 31 32  2  0
 31 56  1  0
 32 27  1  0
 32 57  1  0
 33 58  1  0
 33 59  1  0
 33 60  1  0
M  END
> <Name>
CHEMBL3597404

> <Clean Energy>
22.660299

> <chembl_id>
CHEMBL3597404

> <chembl_pref_name>
None

> <efficacy>
0.917

> <Forcefield>
MMFF

> <ForcefieldBase>
MMFF

> <ForcefieldFFML>
<?xml version="1.0" encoding="UTF-8"?>
<!DOCTYPE ffml SYSTEM "Ffml.dtd">
<ffml version="1.0">
<forcefield name="MMFF" derivedFrom="MMFF" base="MMFF">
<atomTypes>
<atomType
name="C100"
element="C"
mass="12.011"
annotation=""/>
<atomType
name="N101"
element="N"
mass="14.007"
annotation=""/>
<atomType
name="O102"
element="O"
mass="16"
annotation=""/>
<atomType
name="H103"
element="H"
mass="1.008"
annotation=""/>
</atomTypes>
<parameters>
</parameters>
</forcefield>
</ffml>

> <Initial Potential Energy>
145.764

> <Initial RMS Gradient>
28.96685

> <Minimization Criteria>
STEEPD> Minimization exiting with gradient tolerance ( 3.0000000) satisfied.

> <CHARMm Energy>
65.36919

> <Potential Energy>
65.36919

> <RMS Gradient>
0.09582

> <Bond Energy>
5.6715

> <Angle Energy>
22.48211

> <STRBend>
-0.79832

> <Dihedral Energy>
-3.00883

> <OOPLane>
0.07594

> <Van der Waals Energy>
65.02745

> <Electrostatic Energy>
-24.08067

> <Hydrogen Bond Energy>
0

> <Solvation Free Energy>
0

> <HasGasteigerCharges>
true

> <REMARK99>
REMARK  99  MacroMolecule created from Mol2 file
REMARK  99  CHEMBL3597404
REMARK  99  PROTEIN
REMARK  99  GASTEIGER
REMARK  99
REMARK  99

$$$$
CHEMBL3597405
  SciTegic05292516403D

 57 60  0  0  0  0            999 V2000
   -2.0301    1.4132    0.4426 C   0  0
   -2.4968    0.0996    0.4035 C   0  0
   -1.6600   -0.9634    0.0567 C   0  0
   -0.6822    1.6889    0.1752 C   0  0
    0.1912    0.6314   -0.1769 C   0  0
   -0.3281   -0.6625   -0.2388 C   0  0
    0.6893   -1.4959   -0.6335 N   0  0
    1.8412   -0.7817   -0.8078 C   0  0
    1.5858    0.5455   -0.5123 C   0  0
    2.5799    1.6686   -0.5649 C   0  0
    3.9001    1.3501    0.1126 C   0  0
    3.7947    0.7271    1.3123 O   0  0
    4.9934    1.6588   -0.3478 O   0  0
   -2.9809    2.3384    0.7785 O   0  0
   -2.7379    3.6906    0.3987 C   0  0
   -4.0675    4.4279    0.5051 C   0  0
   -3.9208    5.9067    0.1868 C   0  0
   -5.2128    6.5131    0.2730 O   0  0
   -5.2632    7.8727    0.1495 C   0  0
   -6.5306    8.4258    0.3303 C   0  0
   -6.7161    9.8043    0.2464 C   0  0
   -5.6353   10.6437   -0.0199 C   0  0
   -4.3693   10.0930   -0.2168 C   0  0
   -4.1821    8.7088   -0.1309 C   0  0
   -5.9481   11.9703   -0.0619 O   0  0
   -4.8680   12.8816   -0.2304 C   0  0
   -5.4365   14.2766   -0.1610 C   0  0
   -5.0491   15.1585    0.8578 C   0  0
   -5.5978   16.4398    0.9271 C   0  0
   -6.5341   16.8463   -0.0209 C   0  0
   -6.9252   15.9845   -1.0417 C   0  0
   -6.3771   14.7033   -1.1122 C   0  0
   -7.2147   18.4217    0.0731 Cl  0  0
   -3.5406   -0.1060    0.6330 H   0  0
   -2.0412   -1.9784    0.0122 H   0  0
   -0.2920    2.6972    0.2332 H   0  0
    0.5854   -2.4898   -0.7833 H   0  0
    2.7492   -1.2785   -1.1261 H   0  0
    2.7859    1.8995   -1.6168 H   0  0
    2.1807    2.5735   -0.0955 H   0  0
    2.8655    0.5327    1.5525 H   0  0
   -2.0030    4.1346    1.0799 H   0  0
   -2.3707    3.7477   -0.6334 H   0  0
   -4.8053    3.9686   -0.1655 H   0  0
   -4.4904    4.3017    1.5103 H   0  0
   -3.2374    6.3604    0.9152 H   0  0
   -3.5233    6.0304   -0.8276 H   0  0
   -7.3776    7.7797    0.5444 H   0  0
   -7.7068   10.2263    0.3959 H   0  0
   -3.5043   10.7082   -0.4389 H   0  0
   -3.1793    8.3210   -0.2872 H   0  0
   -4.1232   12.7436    0.5632 H   0  0
   -4.3905   12.7452   -1.2086 H   0  0
   -4.3266   14.8564    1.6122 H   0  0
   -5.2956   17.1121    1.7251 H   0  0
   -7.6586   16.3006   -1.7787 H   0  0
   -6.6996   14.0320   -1.9056 H   0  0
  1  2  2  0
  1 14  1  0
  2  3  1  0
  2 34  1  0
  3  6  2  0
  3 35  1  0
  4  1  1  0
  4 36  1  0
  5  4  2  0
  5  6  1  0
  6  7  1  0
  7  8  1  0
  7 37  1  0
  8  9  2  0
  8 38  1  0
  9  5  1  0
  9 10  1  0
 10 11  1  0
 10 39  1  0
 10 40  1  0
 11 12  1  0
 11 13  2  0
 12 41  1  0
 14 15  1  0
 15 16  1  0
 15 42  1  0
 15 43  1  0
 16 17  1  0
 16 44  1  0
 16 45  1  0
 17 18  1  0
 17 46  1  0
 17 47  1  0
 18 19  1  0
 19 20  2  0
 20 21  1  0
 20 48  1  0
 21 22  2  0
 21 49  1  0
 22 23  1  0
 22 25  1  0
 23 24  2  0
 23 50  1  0
 24 19  1  0
 24 51  1  0
 25 26  1  0
 26 27  1  0
 26 52  1  0
 26 53  1  0
 27 28  2  0
 28 29  1  0
 28 54  1  0
 29 30  2  0
 29 55  1  0
 30 31  1  0
 30 33  1  0
 31 32  2  0
 31 56  1  0
 32 27  1  0
 32 57  1  0
M  END
> <Name>
CHEMBL3597405

> <Clean Energy>
22.7834

> <chembl_id>
CHEMBL3597405

> <chembl_pref_name>
None

> <efficacy>
0.994

> <Forcefield>
MMFF

> <ForcefieldBase>
MMFF

> <ForcefieldFFML>
<?xml version="1.0" encoding="UTF-8"?>
<!DOCTYPE ffml SYSTEM "Ffml.dtd">
<ffml version="1.0">
<forcefield name="MMFF" derivedFrom="MMFF" base="MMFF">
<atomTypes>
<atomType
name="C100"
element="C"
mass="12.011"
annotation=""/>
<atomType
name="N101"
element="N"
mass="14.007"
annotation=""/>
<atomType
name="O102"
element="O"
mass="16"
annotation=""/>
<atomType
name="Cl103"
element="Cl"
mass="35.453"
annotation=""/>
<atomType
name="H104"
element="H"
mass="1.008"
annotation=""/>
</atomTypes>
<parameters>
</parameters>
</forcefield>
</ffml>

> <Initial Potential Energy>
142.20817

> <Initial RMS Gradient>
29.72236

> <Minimization Criteria>
STEEPD> Minimization exiting with gradient tolerance ( 3.0000000) satisfied.

> <CHARMm Energy>
60.70194

> <Potential Energy>
60.70194

> <RMS Gradient>
0.08637

> <Bond Energy>
5.20857

> <Angle Energy>
22.42733

> <STRBend>
-0.95391

> <Dihedral Energy>
-2.17688

> <OOPLane>
0.04383

> <Van der Waals Energy>
62.74676

> <Electrostatic Energy>
-26.59376

> <Hydrogen Bond Energy>
0

> <Solvation Free Energy>
0

> <HasGasteigerCharges>
true

> <REMARK99>
REMARK  99  MacroMolecule created from Mol2 file
REMARK  99  CHEMBL3597405
REMARK  99  PROTEIN
REMARK  99  GASTEIGER
REMARK  99
REMARK  99

$$$$
CHEMBL3764209
  SciTegic05292516403D

 48 49  0  0  0  0            999 V2000
    0.8478   -4.2303    1.7742 F   0  0
    0.9719   -2.9514    1.3515 C   0  0
    1.8861   -2.9306    0.3569 F   0  0
    0.6684   -0.3200    0.3122 C   0  0
    0.5314    0.9055   -0.3455 C   0  0
   -0.6381    1.2024   -1.0316 C   0  0
   -1.6794    0.2789   -1.0443 C   0  0
   -1.5788   -0.9457   -0.3529 C   0  0
   -0.3688   -1.2618    0.3028 C   0  0
   -2.7521   -1.9055   -0.4003 C   0  0
   -4.0172   -1.2365   -0.1720 N   0  0
   -5.1673   -1.5941   -0.8424 C   0  0
   -6.4012   -0.8398   -0.4822 C   0  0
   -5.2061   -2.4530   -1.7151 O   0  0
   -7.4069   -0.6820   -1.4474 C   0  0
   -8.5608    0.0548   -1.1569 C   0  0
   -8.7136    0.6422    0.1052 C   0  0
   -7.7287    0.4383    1.0831 C   0  0
   -6.5811   -0.2996    0.7945 C   0  0
   -9.9178    1.4912    0.4200 C   0  0
   -9.5757    2.9753    0.6397 C   0  0  2  0  0  0
  -10.7258    3.5925    1.4054 C   0  0
   -9.2764    3.7658   -0.6483 C   0  0
   -7.7992    3.7797   -1.0185 C   0  0
  -11.8418    3.8024    0.6770 O   0  0
  -10.6790    3.8400    2.6017 O   0  0
   -0.2997   -2.4892    0.9064 O   0  0
    1.4245   -2.2149    2.3904 F   0  0
    1.6114   -0.5007    0.8214 H   0  0
    1.3528    1.6195   -0.3318 H   0  0
   -0.7411    2.1490   -1.5555 H   0  0
   -2.5869    0.5201   -1.5970 H   0  0
   -2.7554   -2.4201   -1.3673 H   0  0
   -2.6752   -2.6642    0.3849 H   0  0
   -4.0242   -0.4852    0.5017 H   0  0
   -7.2857   -1.1266   -2.4337 H   0  0
   -9.3314    0.1750   -1.9203 H   0  0
   -7.8446    0.8556    2.0819 H   0  0
   -5.8531   -0.4562    1.5846 H   0  0
  -10.6696    1.3912   -0.3739 H   0  0
  -10.3920    1.0711    1.3180 H   0  0
   -8.7089    3.0699    1.3078 H   0  0
   -9.8540    3.3657   -1.4901 H   0  0
   -9.5917    4.8099   -0.5252 H   0  0
   -7.6419    4.4041   -1.9041 H   0  0
   -7.4264    2.7800   -1.2504 H   0  0
   -7.1947    4.1937   -0.2051 H   0  0
  -11.7822    3.5773   -0.2693 H   0  0
  2  1  1  0
  2 28  1  0
  3  2  1  0
  4  5  2  0
  4 29  1  0
  5  6  1  0
  5 30  1  0
  6  7  2  0
  6 31  1  0
  7  8  1  0
  7 32  1  0
  8  9  2  0
  8 10  1  0
  9  4  1  0
  9 27  1  0
 10 11  1  0
 10 33  1  0
 10 34  1  0
 11 12  1  0
 11 35  1  0
 12 13  1  0
 12 14  2  0
 13 15  2  0
 15 16  1  0
 15 36  1  0
 16 17  2  0
 16 37  1  0
 17 18  1  0
 17 20  1  0
 18 19  2  0
 18 38  1  0
 19 13  1  0
 19 39  1  0
 20 21  1  0
 20 40  1  0
 20 41  1  0
 21 22  1  0
 21 23  1  0
 21 42  1  0
 22 25  1  0
 22 26  2  0
 23 24  1  0
 23 43  1  0
 23 44  1  0
 24 45  1  0
 24 46  1  0
 24 47  1  0
 25 48  1  0
 27  2  1  0
M  END
> <Name>
CHEMBL3764209

> <Clean Energy>
14.6322

> <chembl_id>
CHEMBL3764209

> <chembl_pref_name>
None

> <efficacy>
1.044634378

> <Forcefield>
MMFF

> <ForcefieldBase>
MMFF

> <ForcefieldFFML>
<?xml version="1.0" encoding="UTF-8"?>
<!DOCTYPE ffml SYSTEM "Ffml.dtd">
<ffml version="1.0">
<forcefield name="MMFF" derivedFrom="MMFF" base="MMFF">
<atomTypes>
<atomType
name="F100"
element="F"
mass="18.998"
annotation=""/>
<atomType
name="C101"
element="C"
mass="12.011"
annotation=""/>
<atomType
name="N102"
element="N"
mass="14.007"
annotation=""/>
<atomType
name="O103"
element="O"
mass="16"
annotation=""/>
<atomType
name="H104"
element="H"
mass="1.008"
annotation=""/>
</atomTypes>
<parameters>
</parameters>
</forcefield>
</ffml>

> <Initial Potential Energy>
85.2858

> <Initial RMS Gradient>
28.10347

> <Minimization Criteria>
CONJUG> Minimization exiting with gradient tolerance ( 0.0100000) satisfied.

> <CHARMm Energy>
11.93394

> <Potential Energy>
11.93394

> <RMS Gradient>
0.00857

> <Bond Energy>
5.20031

> <Angle Energy>
14.33275

> <STRBend>
0.47157

> <Dihedral Energy>
-2.24168

> <OOPLane>
0.09356

> <Van der Waals Energy>
50.76058

> <Electrostatic Energy>
-56.68315

> <Hydrogen Bond Energy>
0

> <Solvation Free Energy>
0

> <HasGasteigerCharges>
true

> <REMARK99>
REMARK  99  MacroMolecule created from Mol2 file
REMARK  99  CHEMBL3764209
REMARK  99  PROTEIN
REMARK  99  GASTEIGER
REMARK  99
REMARK  99

$$$$
CHEMBL328099
  SciTegic05292516403D

 64 66  0  0  0  0            999 V2000
   -0.2698   -2.8620   -0.4461 C   0  0
   10.7531   -1.2080    0.6536 C   0  0
   -1.4182   -3.8037   -0.4593 C   0  0
   -0.4400   -1.4193   -0.1643 C   0  0
    9.3932   -1.8336    0.3288 C   0  0  2  0  0  0
    0.9689   -3.3462   -0.6808 C   0  0
   11.0026   -0.0121    0.6423 O   0  0
    8.3868   -1.4254    1.4085 C   0  0
   -0.3421   -0.4680   -1.1891 C   0  0
   -0.6939   -0.9971    1.1437 C   0  0
   -2.5973   -3.4552   -1.1273 C   0  0
   -1.3823   -5.0152    0.2466 C   0  0
    6.9812   -1.8822    1.0910 C   0  0
   11.6866   -2.1472    0.9658 O   0  0
   -3.6703   -5.5002   -0.3817 C   0  0
   -0.7243    1.3104    0.4028 C   0  0
    4.3990   -2.7898    0.4236 C   0  0
    2.2705   -2.5909   -0.6365 C   0  0
   -3.7093   -4.3001   -1.0917 C   0  0
   -0.4830    0.8941   -0.9063 C   0  0
   -2.4976   -5.8613    0.2807 C   0  0
   -0.8212    0.3632    1.4242 C   0  0
    9.5952   -3.2681    0.3505 O   0  0
    6.4883   -3.0786    1.6243 C   0  0
    6.1663   -1.1429    0.2248 C   0  0
    5.2091   -3.5273    1.2893 C   0  0
    4.8837   -1.5940   -0.1075 C   0  0
    3.1727   -3.3448    0.1770 O   0  0
   -4.8353   -6.2157   -0.4091 O   0  0
   -0.8497    2.6075    0.8100 O   0  0
    9.0564   -3.9089   -0.8100 C   0  0
   -1.2311    3.5488   -0.1899 C   0  0
   -4.8812   -7.3873    0.3953 C   0  0
    9.2192   -5.4061   -0.6417 C   0  0
    9.1068   -1.4940   -0.6743 H   0  0
    1.1044   -4.4002   -0.9150 H   0  0
    8.6869   -1.8419    2.3794 H   0  0
    8.3811   -0.3354    1.5377 H   0  0
   -0.1470   -0.7847   -2.2110 H   0  0
   -0.7914   -1.7213    1.9495 H   0  0
   -2.6747   -2.5196   -1.6761 H   0  0
   -0.4906   -5.3047    0.7985 H   0  0
   11.2409   -3.0266    0.9040 H   0  0
    2.6660   -2.5214   -1.6566 H   0  0
    2.1477   -1.5892   -0.2144 H   0  0
   -4.6175   -4.0096   -1.6121 H   0  0
   -0.3836    1.6058   -1.7193 H   0  0
   -2.4184   -6.7871    0.8416 H   0  0
   -1.0101    0.6872    2.4449 H   0  0
    7.1020   -3.6797    2.2927 H   0  0
    6.5227   -0.2071   -0.2015 H   0  0
    4.8431   -4.4620    1.7074 H   0  0
    4.2922   -0.9857   -0.7840 H   0  0
    7.9978   -3.6614   -0.9312 H   0  0
    9.6065   -3.5713   -1.6950 H   0  0
   -1.4902    4.4847    0.3144 H   0  0
   -2.1133    3.2107   -0.7442 H   0  0
   -0.3955    3.7541   -0.8664 H   0  0
   -5.8844   -7.8151    0.3055 H   0  0
   -4.7141   -7.1510    1.4515 H   0  0
   -4.1673   -8.1374    0.0394 H   0  0
    8.8301   -5.9415   -1.5121 H   0  0
    8.6899   -5.7526    0.2522 H   0  0
   10.2743   -5.6670   -0.5081 H   0  0
  2  5  1  0
  3  1  1  0
  4  1  1  0
  5  8  1  0
  5 23  1  0
  5 35  1  0
  6  1  2  0
  6 36  1  0
  7  2  2  0
  8 13  1  0
  8 37  1  0
  8 38  1  0
  9  4  2  0
  9 39  1  0
 10  4  1  0
 10 40  1  0
 11  3  2  0
 11 41  1  0
 12  3  1  0
 12 42  1  0
 13 25  1  0
 14  2  1  0
 14 43  1  0
 15 21  1  0
 16 22  1  0
 17 28  1  0
 18  6  1  0
 18 44  1  0
 18 45  1  0
 19 11  1  0
 19 15  2  0
 19 46  1  0
 20  9  1  0
 20 16  2  0
 20 47  1  0
 21 12  2  0
 21 48  1  0
 22 10  2  0
 22 49  1  0
 24 13  2  0
 24 26  1  0
 24 50  1  0
 25 27  2  0
 25 51  1  0
 26 17  2  0
 26 52  1  0
 27 17  1  0
 27 53  1  0
 28 18  1  0
 29 15  1  0
 30 16  1  0
 31 23  1  0
 31 54  1  0
 31 55  1  0
 32 30  1  0
 32 56  1  0
 32 57  1  0
 32 58  1  0
 33 29  1  0
 33 59  1  0
 33 60  1  0
 33 61  1  0
 34 31  1  0
 34 62  1  0
 34 63  1  0
 34 64  1  0
M  END
> <Name>
CHEMBL328099

> <Clean Energy>
30.2192

> <chembl_id>
CHEMBL328099

> <chembl_pref_name>
None

> <efficacy>
1.01

> <Forcefield>
MMFF

> <ForcefieldBase>
MMFF

> <ForcefieldFFML>
<?xml version="1.0" encoding="UTF-8"?>
<!DOCTYPE ffml SYSTEM "Ffml.dtd">
<ffml version="1.0">
<forcefield name="MMFF" derivedFrom="MMFF" base="MMFF">
<atomTypes>
<atomType
name="C100"
element="C"
mass="12.011"
annotation=""/>
<atomType
name="O101"
element="O"
mass="16"
annotation=""/>
<atomType
name="H102"
element="H"
mass="1.008"
annotation=""/>
</atomTypes>
<parameters>
</parameters>
</forcefield>
</ffml>

> <Initial Potential Energy>
320.46807

> <Initial RMS Gradient>
61.33378

> <Minimization Criteria>
STEEPD> Minimization exiting with gradient tolerance ( 3.0000000) satisfied.

> <CHARMm Energy>
87.96928

> <Potential Energy>
87.96928

> <RMS Gradient>
0.0216

> <Bond Energy>
6.5898

> <Angle Energy>
22.71098

> <STRBend>
0.08861

> <Dihedral Energy>
11.34136

> <OOPLane>
0.04127

> <Van der Waals Energy>
75.02902

> <Electrostatic Energy>
-27.83175

> <Hydrogen Bond Energy>
0

> <Solvation Free Energy>
0

> <HasGasteigerCharges>
true

> <REMARK99>
REMARK  99  MacroMolecule created from Mol2 file
REMARK  99  CHEMBL328099
REMARK  99  PROTEIN
REMARK  99  GASTEIGER
REMARK  99
REMARK  99

$$$$
CHEMBL25259
  SciTegic05292516403D

 61 64  0  0  0  0            999 V2000
   -0.7519   -0.4377   -0.0531 N   0  0
   -1.3033    0.5269   -0.7697 C   0  0
   -0.4759    1.0214   -1.7467 O   0  0
    0.4991   -0.6073   -0.6032 C   0  0
    0.6634    0.2806   -1.6442 C   0  0
    9.3415   -0.8166    0.1584 C   0  0
   10.0472   -2.0784    0.7214 C   0  0
   -2.5989    1.1645   -0.6111 C   0  0
    8.2124   -1.1232   -0.6785 O   0  0
   -5.0899    2.4266   -0.1821 C   0  0
   10.6618   -2.8834    0.0280 O   0  0
   -3.4582    0.7206    0.4008 C   0  0
   -3.0032    2.2331   -1.4201 C   0  0
   -4.6879    1.3438    0.6130 C   0  0
   -4.2355    2.8559   -1.2082 C   0  0
    1.4462   -1.6127   -0.0617 C   0  0
   -6.3609    3.1097    0.0742 C   0  0
    7.0114   -1.3262   -0.0690 C   0  0
   10.0106   -2.2500    2.0662 O   0  0
    4.4412   -1.6726    0.9941 C   0  0
    2.0992   -1.1508    1.2418 C   0  0
    6.7527   -2.4156    0.7537 C   0  0
    5.9895   -0.4318   -0.3868 C   0  0
    5.4698   -2.5770    1.2913 C   0  0
    4.7095   -0.5958    0.1508 C   0  0
    3.2338   -1.9639    1.5693 O   0  0
    1.7444    0.5912   -2.5932 C   0  0
    9.0295    0.2668    1.2097 C   0  0
   10.3636   -0.1812   -0.8126 C   0  0
   -7.3302    3.2382   -0.9318 C   0  0
   -6.6306    3.6569    1.3400 C   0  0
   -8.5348    3.8934   -0.6786 C   0  0
   -7.8332    4.3129    1.5929 C   0  0
   -8.7835    4.4294    0.5823 C   0  0
   -3.1628   -0.1097    1.0404 H   0  0
   -2.3514    2.6026   -2.2095 H   0  0
   -5.3314    0.9786    1.4107 H   0  0
   -4.5134    3.7005   -1.8350 H   0  0
    0.9207   -2.5594    0.1151 H   0  0
    2.2090   -1.8458   -0.8134 H   0  0
    9.3614   -1.6861    2.5277 H   0  0
    2.3527   -0.0842    1.2502 H   0  0
    1.3791   -1.2786    2.0597 H   0  0
    7.5114   -3.1668    0.9531 H   0  0
    6.1872    0.3980   -1.0609 H   0  0
    5.2586   -3.4331    1.9286 H   0  0
    3.9530    0.1301   -0.1232 H   0  0
    2.3936    1.3722   -2.1861 H   0  0
    1.3402    0.9434   -3.5474 H   0  0
    2.3567   -0.2929   -2.7945 H   0  0
    9.9250    0.5399    1.7791 H   0  0
    8.2692   -0.0557    1.9285 H   0  0
    8.6340    1.1718    0.7336 H   0  0
   11.3037    0.0675   -0.3077 H   0  0
    9.9587    0.7307   -1.2674 H   0  0
   10.5937   -0.8589   -1.6437 H   0  0
   -7.1607    2.8186   -1.9210 H   0  0
   -5.8908    3.5798    2.1351 H   0  0
   -9.2814    3.9837   -1.4636 H   0  0
   -8.0317    4.7357    2.5746 H   0  0
   -9.7206    4.9389    0.7784 H   0  0
  2  1  2  0
  3  2  1  0
  3  5  1  0
  4  1  1  0
  5  4  2  0
  6  9  1  0
  7  6  1  0
  8  2  1  0
  9 18  1  0
 10 15  1  0
 11  7  2  0
 12  8  2  0
 12 35  1  0
 13  8  1  0
 13 36  1  0
 14 10  2  0
 14 12  1  0
 14 37  1  0
 15 13  2  0
 15 38  1  0
 16  4  1  0
 16 39  1  0
 16 40  1  0
 17 10  1  0
 18 22  1  0
 18 23  2  0
 19  7  1  0
 19 41  1  0
 20 26  1  0
 21 16  1  0
 21 42  1  0
 21 43  1  0
 22 24  2  0
 22 44  1  0
 23 25  1  0
 23 45  1  0
 24 20  1  0
 24 46  1  0
 25 20  2  0
 25 47  1  0
 26 21  1  0
 27  5  1  0
 27 48  1  0
 27 49  1  0
 27 50  1  0
 28  6  1  0
 28 51  1  0
 28 52  1  0
 28 53  1  0
 29  6  1  0
 29 54  1  0
 29 55  1  0
 29 56  1  0
 30 17  2  0
 30 57  1  0
 31 17  1  0
 31 58  1  0
 32 30  1  0
 32 59  1  0
 33 31  2  0
 33 60  1  0
 34 32  2  0
 34 33  1  0
 34 61  1  0
M  END
> <Name>
CHEMBL25259

> <Clean Energy>
44.295898

> <chembl_id>
CHEMBL25259

> <chembl_pref_name>
None

> <efficacy>
1.23

> <Forcefield>
MMFF

> <ForcefieldBase>
MMFF

> <ForcefieldFFML>
<?xml version="1.0" encoding="UTF-8"?>
<!DOCTYPE ffml SYSTEM "Ffml.dtd">
<ffml version="1.0">
<forcefield name="MMFF" derivedFrom="MMFF" base="MMFF">
<atomTypes>
<atomType
name="N100"
element="N"
mass="14.007"
annotation=""/>
<atomType
name="C101"
element="C"
mass="12.011"
annotation=""/>
<atomType
name="O102"
element="O"
mass="16"
annotation=""/>
<atomType
name="H103"
element="H"
mass="1.008"
annotation=""/>
</atomTypes>
<parameters>
</parameters>
</forcefield>
</ffml>

> <Initial Potential Energy>
202.79101

> <Initial RMS Gradient>
29.16913

> <Minimization Criteria>
CONJUG> Minimization exiting with gradient tolerance ( 0.0100000) satisfied.

> <CHARMm Energy>
100.91246

> <Potential Energy>
100.91246

> <RMS Gradient>
0.00941

> <Bond Energy>
6.82801

> <Angle Energy>
20.68287

> <STRBend>
-0.08878

> <Dihedral Energy>
14.35313

> <OOPLane>
0.16101

> <Van der Waals Energy>
63.46691

> <Electrostatic Energy>
-4.49068

> <Hydrogen Bond Energy>
0

> <Solvation Free Energy>
0

> <HasGasteigerCharges>
true

> <REMARK99>
REMARK  99  MacroMolecule created from Mol2 file
REMARK  99  CHEMBL25259
REMARK  99  PROTEIN
REMARK  99  GASTEIGER
REMARK  99
REMARK  99

$$$$
CHEMBL428019
  SciTegic05292516403D

 61 62  0  0  0  0            999 V2000
    4.0451   -1.2398   -0.8692 C   0  0
    3.5822   -2.2813   -0.0669 C   0  0
    4.2538   -2.6097    1.1084 C   0  0
    5.3948   -1.8996    1.4802 C   0  0
    5.8694   -0.8453    0.6843 C   0  0
    5.1824   -0.5250   -0.4969 C   0  0
    7.1299   -0.1037    1.0889 C   0  0  1  0  0  0
    8.2920   -0.5552    0.2098 C   0  0
    6.9615    1.3256    0.8995 O   0  0
    6.3014    2.1170    1.7799 C   0  0
    5.9328    3.3272    1.2653 N   0  0
    5.9579    1.7172    3.3541 S   0  0
    6.1787    3.7492   -0.0997 C   0  0
    5.7237    5.1846   -0.3316 C   0  0
    9.6102    0.0248    0.7216 C   0  0
   10.7684   -0.6236    0.0160 C   0  0
   11.0735   -1.9659    0.2777 C   0  0
   12.1199   -2.5890   -0.3869 C   0  0
   12.8960   -1.8668   -1.3003 C   0  0
   12.5860   -0.5298   -1.5754 C   0  0
   11.5232    0.0884   -0.9212 C   0  0
   14.1063   -2.5155   -1.9124 C   0  0
   15.1960   -2.7269   -0.8597 C   0  0  1  0  0  0
   16.1970   -3.7284   -1.4191 C   0  0
   17.3903   -3.1433   -1.6972 O   0  0
   15.9843   -4.9156   -1.6129 O   0  0
   15.9495   -1.5053   -0.6393 O   0  0
   15.5654   -0.8534    0.5777 C   0  0
   16.3539    0.4370    0.6875 C   0  0
    5.9647    5.6214   -1.7671 C   0  0
    3.5105   -0.9799   -1.7796 H   0  0
    2.6884   -2.8307   -0.3520 H   0  0
    3.8764   -3.4121    1.7385 H   0  0
    5.9137   -2.1715    2.3970 H   0  0
    5.5315    0.2869   -1.1310 H   0  0
    7.3827   -0.3211    2.1329 H   0  0
    8.3314   -1.6520    0.2008 H   0  0
    8.1424   -0.2338   -0.8303 H   0  0
    5.3816    3.9212    1.8788 H   0  0
    7.2507    3.6441   -0.3015 H   0  0
    5.6439    3.0599   -0.7629 H   0  0
    4.6563    5.2793   -0.0976 H   0  0
    6.2566    5.8586    0.3500 H   0  0
    9.6319    1.1125    0.5784 H   0  0
    9.7217   -0.1483    1.7996 H   0  0
   10.4908   -2.5343    0.9988 H   0  0
   12.3421   -3.6334   -0.1738 H   0  0
   13.1863    0.0447   -2.2796 H   0  0
   11.2935    1.1289   -1.1408 H   0  0
   13.7916   -3.4678   -2.3588 H   0  0
   14.4875   -1.8969   -2.7352 H   0  0
   14.8386   -3.1369    0.0927 H   0  0
   17.3154   -2.1935   -1.4336 H   0  0
   14.4960   -0.6326    0.5821 H   0  0
   15.8018   -1.5044    1.4267 H   0  0
   16.1015    0.9718    1.6071 H   0  0
   16.1480    1.0886   -0.1680 H   0  0
   17.4296    0.2335    0.6812 H   0  0
    5.6294    6.6533   -1.9118 H   0  0
    5.4147    4.9843   -2.4673 H   0  0
    7.0290    5.5710   -2.0184 H   0  0
  1  2  2  0
  1 31  1  0
  2  3  1  0
  2 32  1  0
  3  4  2  0
  3 33  1  0
  4  5  1  0
  4 34  1  0
  5  6  2  0
  5  7  1  0
  6  1  1  0
  6 35  1  0
  7  8  1  0
  7  9  1  0
  7 36  1  0
  8 15  1  0
  8 37  1  0
  8 38  1  0
  9 10  1  0
 10 11  1  0
 10 12  2  0
 11 13  1  0
 11 39  1  0
 13 14  1  0
 13 40  1  0
 13 41  1  0
 14 30  1  0
 14 42  1  0
 14 43  1  0
 15 16  1  0
 15 44  1  0
 15 45  1  0
 16 17  2  0
 17 18  1  0
 17 46  1  0
 18 19  2  0
 18 47  1  0
 19 20  1  0
 19 22  1  0
 20 21  2  0
 20 48  1  0
 21 16  1  0
 21 49  1  0
 22 23  1  0
 22 50  1  0
 22 51  1  0
 23 24  1  0
 23 27  1  0
 23 52  1  0
 24 25  1  0
 24 26  2  0
 25 53  1  0
 27 28  1  0
 28 29  1  0
 28 54  1  0
 28 55  1  0
 29 56  1  0
 29 57  1  0
 29 58  1  0
 30 59  1  0
 30 60  1  0
 30 61  1  0
M  END
> <Name>
CHEMBL428019

> <Clean Energy>
28.787001

> <chembl_id>
CHEMBL428019

> <chembl_pref_name>
None

> <efficacy>
1.52

> <Forcefield>
MMFF

> <ForcefieldBase>
MMFF

> <ForcefieldFFML>
<?xml version="1.0" encoding="UTF-8"?>
<!DOCTYPE ffml SYSTEM "Ffml.dtd">
<ffml version="1.0">
<forcefield name="MMFF" derivedFrom="MMFF" base="MMFF">
<atomTypes>
<atomType
name="C100"
element="C"
mass="12.011"
annotation=""/>
<atomType
name="O101"
element="O"
mass="16"
annotation=""/>
<atomType
name="N102"
element="N"
mass="14.007"
annotation=""/>
<atomType
name="S103"
element="S"
mass="32.066"
annotation=""/>
<atomType
name="H104"
element="H"
mass="1.008"
annotation=""/>
</atomTypes>
<parameters>
</parameters>
</forcefield>
</ffml>

> <Initial Potential Energy>
134.48247

> <Initial RMS Gradient>
26.08929

> <Minimization Criteria>
STEEPD> Minimization exiting with gradient tolerance ( 3.0000000) satisfied.

> <CHARMm Energy>
16.77279

> <Potential Energy>
16.77279

> <RMS Gradient>
0.13739

> <Bond Energy>
4.86058

> <Angle Energy>
10.1047

> <STRBend>
0.35178

> <Dihedral Energy>
-2.84482

> <OOPLane>
0.06832

> <Van der Waals Energy>
57.54556

> <Electrostatic Energy>
-53.31333

> <Hydrogen Bond Energy>
0

> <Solvation Free Energy>
0

> <HasGasteigerCharges>
true

> <REMARK99>
REMARK  99  MacroMolecule created from Mol2 file
REMARK  99  CHEMBL428019
REMARK  99  PROTEIN
REMARK  99  GASTEIGER
REMARK  99
REMARK  99

$$$$
CHEMBL4464717
  SciTegic05292516403D

 76 81  0  0  0  0            999 V2000
    7.0617  -32.1828    0.3134 C   0  0
    5.8561  -32.2711   -0.1413 N   0  0
    5.3859  -33.5781    0.2563 O   0  0
    6.4237  -34.1876    0.9200 C   0  0
    7.4213  -33.2916    1.0061 N   0  0
    7.5529  -22.5536   -0.4619 C   0  0
    7.3007  -23.7656    0.1172 O   0  0
    8.3194  -23.9970    1.0270 N   0  0
    9.1217  -22.9327    0.8716 C   0  0
    8.6564  -21.9844   -0.0170 N   0  0
    4.5409  -26.9880   -0.8927 C   0  0
    4.7190  -28.1584   -1.6619 C   0  0
    5.6899  -29.1333   -1.3409 C   0  0
    6.5252  -28.9802   -0.2299 C   0  0
    6.2675  -27.8586    0.5959 C   0  0
    5.2948  -26.8826    0.2766 C   0  0
    7.8168  -29.7208   -0.1187 C   0  0
    8.0654  -31.1025    0.0921 C   0  0
    9.4120  -31.5721    0.0509 C   0  0
   10.4980  -30.7211   -0.1476 C   0  0
   10.2694  -29.3722   -0.3288 C   0  0
    8.9599  -28.8914   -0.3209 C   0  0
    3.4951  -25.9607   -1.3308 C   0  0
    3.7296  -24.5195   -1.0392 N   0  0
    4.8248  -23.9180   -1.6311 C   0  0
    5.1389  -22.5330   -1.2005 C   0  0
    4.1469  -21.8521   -0.6052 C   0  0
    2.9204  -22.4021   -0.3447 N   0  0
    2.7587  -23.6791   -0.5091 C   0  0
    5.5459  -24.4786   -2.4548 O   0  0
    1.4174  -24.2894   -0.1090 C   0  0
    0.4183  -23.2905    0.4776 C   0  0
   -0.8947  -23.9758    0.8560 C   0  0
   -1.8901  -22.9870    1.4415 C   0  0
    6.5523  -22.0795   -1.4620 C   0  0
   10.3641  -22.7832    1.6664 C   0  0
    6.4418  -35.3393    1.3367 O   0  0
    4.2825  -20.4409   -0.0930 C   0  0
   11.4466  -23.5754    0.9688 C   0  0
   11.4680  -24.9812    1.0289 C   0  0
   12.4839  -25.7050    0.4025 C   0  0
   13.4935  -25.0367   -0.2875 C   0  0
   13.4848  -23.6435   -0.3549 C   0  0
   12.4698  -22.9150    0.2704 C   0  0
    8.2855  -33.5363    1.4614 H   0  0
    4.1241  -28.3112   -2.5621 H   0  0
    5.8309  -29.9731   -2.0202 H   0  0
    6.8960  -27.6815    1.4689 H   0  0
    5.1839  -26.0215    0.9321 H   0  0
    9.6481  -32.6329    0.1314 H   0  0
   11.5099  -31.1192   -0.1804 H   0  0
   11.0941  -28.6881   -0.5066 H   0  0
    8.8208  -27.8238   -0.5104 H   0  0
    3.3928  -26.0215   -2.4227 H   0  0
    2.5455  -26.2967   -0.9097 H   0  0
    0.9778  -24.7560   -0.9986 H   0  0
    1.6107  -25.0775    0.6286 H   0  0
    0.8507  -22.8111    1.3646 H   0  0
    0.2189  -22.4943   -0.2504 H   0  0
   -1.3361  -24.4493   -0.0286 H   0  0
   -0.7035  -24.7693    1.5878 H   0  0
   -2.8215  -23.4979    1.7051 H   0  0
   -2.1278  -22.1970    0.7220 H   0  0
   -1.4914  -22.5188    2.3471 H   0  0
    6.8760  -22.4048   -2.4585 H   0  0
    6.6023  -20.9859   -1.5075 H   0  0
   10.6412  -21.7256    1.7427 H   0  0
   10.2318  -23.1522    2.6902 H   0  0
    3.7148  -19.7555   -0.7307 H   0  0
    5.3165  -20.0910   -0.0500 H   0  0
    3.8845  -20.3689    0.9256 H   0  0
   10.6875  -25.5268    1.5599 H   0  0
   12.4806  -26.7907    0.4558 H   0  0
   14.2860  -25.6015   -0.7722 H   0  0
   14.2712  -23.1156   -0.8907 H   0  0
   12.4920  -21.8267    0.2118 H   0  0
  1  2  2  0
  2  3  1  0
  3  4  1  0
  4  5  1  0
  4 37  2  0
  5  1  1  0
  5 45  1  0
  6  7  1  0
  7  8  1  0
  8  9  2  0
  9 10  1  0
  9 36  1  0
 10  6  2  0
 11 12  2  0
 11 23  1  0
 12 13  1  0
 12 46  1  0
 13 14  2  0
 13 47  1  0
 14 15  1  0
 14 17  1  0
 15 16  2  0
 15 48  1  0
 16 11  1  0
 16 49  1  0
 17 18  2  0
 18  1  1  0
 18 19  1  0
 19 20  2  0
 19 50  1  0
 20 21  1  0
 20 51  1  0
 21 22  2  0
 21 52  1  0
 22 17  1  0
 22 53  1  0
 23 24  1  0
 23 54  1  0
 23 55  1  0
 24 25  1  0
 24 29  1  0
 25 26  1  0
 25 30  2  0
 26 27  2  0
 26 35  1  0
 27 28  1  0
 27 38  1  0
 28 29  2  0
 29 31  1  0
 31 32  1  0
 31 56  1  0
 31 57  1  0
 32 33  1  0
 32 58  1  0
 32 59  1  0
 33 34  1  0
 33 60  1  0
 33 61  1  0
 34 62  1  0
 34 63  1  0
 34 64  1  0
 35  6  1  0
 35 65  1  0
 35 66  1  0
 36 39  1  0
 36 67  1  0
 36 68  1  0
 38 69  1  0
 38 70  1  0
 38 71  1  0
 39 40  2  0
 40 41  1  0
 40 72  1  0
 41 42  2  0
 41 73  1  0
 42 43  1  0
 42 74  1  0
 43 44  2  0
 43 75  1  0
 44 39  1  0
 44 76  1  0
M  END
> <Name>
CHEMBL4464717

> <Clean Energy>
72.5215

> <chembl_id>
CHEMBL4464717

> <chembl_pref_name>
None

> <efficacy>
0.997150997

> <Forcefield>
MMFF

> <ForcefieldBase>
MMFF

> <ForcefieldFFML>
<?xml version="1.0" encoding="UTF-8"?>
<!DOCTYPE ffml SYSTEM "Ffml.dtd">
<ffml version="1.0">
<forcefield name="MMFF" derivedFrom="MMFF" base="MMFF">
<atomTypes>
<atomType
name="C100"
element="C"
mass="12.011"
annotation=""/>
<atomType
name="N101"
element="N"
mass="14.007"
annotation=""/>
<atomType
name="O102"
element="O"
mass="16"
annotation=""/>
<atomType
name="H103"
element="H"
mass="1.008"
annotation=""/>
</atomTypes>
<parameters>
</parameters>
</forcefield>
</ffml>

> <Initial Potential Energy>
304.44903

> <Initial RMS Gradient>
35.54707

> <Minimization Criteria>
CONJUG> Minimization exiting with gradient tolerance ( 0.0100000) satisfied.

> <CHARMm Energy>
41.69565

> <Potential Energy>
41.69565

> <RMS Gradient>
0.00978

> <Bond Energy>
13.82293

> <Angle Energy>
28.80139

> <STRBend>
1.29961

> <Dihedral Energy>
8.14795

> <OOPLane>
0.96411

> <Van der Waals Energy>
74.95827

> <Electrostatic Energy>
-86.29863

> <Hydrogen Bond Energy>
0

> <Solvation Free Energy>
0

> <HasGasteigerCharges>
true

> <REMARK99>
REMARK  99  MacroMolecule created from Mol2 file
REMARK  99  CHEMBL4464717
REMARK  99  PROTEIN
REMARK  99  GASTEIGER
REMARK  99
REMARK  99

$$$$
CHEMBL4763760
  SciTegic05292516403D

 61 64  0  0  0  0            999 V2000
    4.6339  -23.6133   -1.1423 C   0  0
    4.4597  -24.8479   -0.5168 C   0  0
    5.5365  -25.5471    0.0344 C   0  0
    5.8923  -22.9982   -1.1851 C   0  0
    6.9831  -23.6603   -0.5747 C   0  0
    6.7871  -24.9168    0.0056 C   0  0
    8.0284  -25.2781    0.4794 N   0  0
    8.8955  -24.2360    0.2469 C   0  0
    8.2912  -23.2696   -0.4127 N   0  0
    8.3700  -26.5216    1.1286 C   0  0
   10.3006  -24.1808    0.7402 C   0  0
   11.0517  -25.1945    0.0619 O   0  0
   12.4086  -25.0128    0.0869 C   0  0
   13.1171  -25.5783   -0.9741 C   0  0
   14.4991  -25.4033   -1.0754 C   0  0
   15.1853  -24.6751   -0.1023 C   0  0
   14.4856  -24.1534    0.9902 C   0  0
   13.0983  -24.3224    1.0818 C   0  0
   15.1374  -23.3537    2.0525 C   0  0
   16.4029  -23.7259    2.3346 O   0  0
   14.5460  -22.4676    2.6470 O   0  0
    3.2261  -25.4577   -0.4560 O   0  0
    2.1965  -24.7373    0.1069 C   0  0
    2.3540  -23.9451    1.2443 C   0  0
    1.2510  -23.2767    1.7698 C   0  0
    0.0140  -23.4303    1.1517 C   0  0
   -0.1625  -24.2109    0.0595 N   0  0
    0.9211  -24.8579   -0.4462 C   0  0
    0.6864  -25.7181   -1.6528 C   0  0
   -1.1964  -22.7291    1.6947 C   0  0
    5.8878  -21.7585   -1.8134 O   0  0
    7.1484  -21.1204   -2.0213 C   0  0
    7.4921  -20.2139   -0.8424 C   0  0
    8.8400  -19.5393   -1.0261 C   0  0
    3.7888  -23.1043   -1.5963 H   0  0
    5.3846  -26.5176    0.4938 H   0  0
    9.0179  -27.0918    0.4583 H   0  0
    7.4672  -27.0966    1.3430 H   0  0
    8.8828  -26.3017    2.0681 H   0  0
   10.7024  -23.1821    0.5241 H   0  0
   10.3224  -24.3566    1.8219 H   0  0
   12.5847  -26.1272   -1.7477 H   0  0
   15.0332  -25.8145   -1.9294 H   0  0
   16.2477  -24.4941   -0.2319 H   0  0
   12.5811  -23.8932    1.9362 H   0  0
   16.6991  -24.5659    1.9371 H   0  0
    3.3230  -23.8424    1.7263 H   0  0
    1.3593  -22.6497    2.6487 H   0  0
    1.2824  -25.3597   -2.4980 H   0  0
   -0.3678  -25.6935   -1.9479 H   0  0
    0.9511  -26.7578   -1.4369 H   0  0
   -2.0776  -22.9405    1.0802 H   0  0
   -1.0363  -21.6465    1.6995 H   0  0
   -1.4013  -23.0676    2.7151 H   0  0
    7.9419  -21.8284   -2.2815 H   0  0
    7.0240  -20.4927   -2.9122 H   0  0
    6.7094  -19.4536   -0.7324 H   0  0
    7.4872  -20.7773    0.0968 H   0  0
    9.0585  -18.8909   -0.1718 H   0  0
    8.8521  -18.9239   -1.9314 H   0  0
    9.6418  -20.2807   -1.1033 H   0  0
  1  2  2  0
  1 35  1  0
  2  3  1  0
  2 22  1  0
  3  6  2  0
  3 36  1  0
  4  1  1  0
  4 31  1  0
  5  4  2  0
  5  6  1  0
  6  7  1  0
  7  8  1  0
  7 10  1  0
  8  9  2  0
  8 11  1  0
  9  5  1  0
 10 37  1  0
 10 38  1  0
 10 39  1  0
 11 12  1  0
 11 40  1  0
 11 41  1  0
 12 13  1  0
 13 14  2  0
 14 15  1  0
 14 42  1  0
 15 16  2  0
 15 43  1  0
 16 17  1  0
 16 44  1  0
 17 18  2  0
 17 19  1  0
 18 13  1  0
 18 45  1  0
 19 20  1  0
 19 21  2  0
 20 46  1  0
 22 23  1  0
 23 24  2  0
 24 25  1  0
 24 47  1  0
 25 26  2  0
 25 48  1  0
 26 27  1  0
 26 30  1  0
 27 28  2  0
 28 23  1  0
 28 29  1  0
 29 49  1  0
 29 50  1  0
 29 51  1  0
 30 52  1  0
 30 53  1  0
 30 54  1  0
 31 32  1  0
 32 33  1  0
 32 55  1  0
 32 56  1  0
 33 34  1  0
 33 57  1  0
 33 58  1  0
 34 59  1  0
 34 60  1  0
 34 61  1  0
M  END
> <Name>
CHEMBL4763760

> <Clean Energy>
38.696201

> <chembl_id>
CHEMBL4763760

> <chembl_pref_name>
None

> <efficacy>
0.94

> <Forcefield>
MMFF

> <ForcefieldBase>
MMFF

> <ForcefieldFFML>
<?xml version="1.0" encoding="UTF-8"?>
<!DOCTYPE ffml SYSTEM "Ffml.dtd">
<ffml version="1.0">
<forcefield name="MMFF" derivedFrom="MMFF" base="MMFF">
<atomTypes>
<atomType
name="C100"
element="C"
mass="12.011"
annotation=""/>
<atomType
name="N101"
element="N"
mass="14.007"
annotation=""/>
<atomType
name="O102"
element="O"
mass="16"
annotation=""/>
<atomType
name="H103"
element="H"
mass="1.008"
annotation=""/>
</atomTypes>
<parameters>
</parameters>
</forcefield>
</ffml>

> <Initial Potential Energy>
245.81133

> <Initial RMS Gradient>
45.78309

> <Minimization Criteria>
STEEPD> Minimization exiting with gradient tolerance ( 3.0000000) satisfied.

> <CHARMm Energy>
98.14099

> <Potential Energy>
98.14099

> <RMS Gradient>
0.05991

> <Bond Energy>
5.00008

> <Angle Energy>
22.9904

> <STRBend>
0.92759

> <Dihedral Energy>
7.33133

> <OOPLane>
0.14361

> <Van der Waals Energy>
67.42308

> <Electrostatic Energy>
-5.6751

> <Hydrogen Bond Energy>
0

> <Solvation Free Energy>
0

> <HasGasteigerCharges>
true

> <REMARK99>
REMARK  99  MacroMolecule created from Mol2 file
REMARK  99  CHEMBL4763760
REMARK  99  PROTEIN
REMARK  99  GASTEIGER
REMARK  99
REMARK  99

$$$$
CHEMBL4469751
  SciTegic05292516403D

 71 75  0  0  0  0            999 V2000
    3.8516  -11.4837   -0.1504 N   0  0
    3.7651  -12.7363   -0.4748 C   0  0
    4.7749  -13.4329   -1.1226 N   0  0
    5.8276  -12.7021   -1.6477 C   0  0
    6.0422  -11.3457   -1.0838 C   0  0
    5.0312  -10.8247   -0.3704 C   0  0
    5.0944   -9.4812    0.3066 C   0  0
    6.5764  -13.1225   -2.5299 O   0  0
    7.3773  -10.7225   -1.3782 C   0  0
    8.4767  -11.4212   -0.5983 C   0  0
    9.6426  -10.7129   -0.7057 O   0  0
    8.3609  -12.4765    0.0167 O   0  0
    2.4812  -13.4858   -0.1312 C   0  0
    1.4383  -12.6457    0.6074 C   0  0
    0.1870  -13.4653    0.9221 C   0  0
   -0.8547  -12.6330    1.6526 C   0  0
    4.6762  -14.8568   -1.5369 C   0  0
    5.7443  -15.8244   -1.0176 C   0  0
    6.2740  -16.8125   -1.8734 C   0  0
    7.2699  -17.7225   -1.4489 C   0  0
    7.7743  -17.6874   -0.1438 C   0  0
    7.1770  -16.7520    0.7327 C   0  0
    6.1821  -15.8396    0.3090 C   0  0
    9.0766  -18.3271    0.2078 C   0  0
    9.3947  -19.6981    0.4101 C   0  0
   10.7378  -20.0446    0.7376 C   0  0
   11.7568  -19.0958    0.8282 C   0  0
   11.4623  -17.7651    0.6059 C   0  0
   10.1512  -17.3954    0.3058 C   0  0
    8.4346  -20.8419    0.3637 C   0  0
    7.1445  -20.7983    0.4187 N   0  0
    6.7078  -22.1789    0.4154 O   0  0
    7.8400  -22.9565    0.3670 C   0  0
    8.8902  -22.1182    0.2899 N   0  0
    7.8923  -24.1799    0.4010 O   0  0
   10.7543  -11.3870   -0.1047 C   0  0
   11.9415  -10.4744   -0.1418 C   0  0
   13.1243  -10.7416    0.7549 C   0  0
   12.2353   -9.5557    1.0157 C   0  0
    6.1159   -9.1418    0.4953 H   0  0
    4.5999   -9.5233    1.2841 H   0  0
    4.5812   -8.7293   -0.3014 H   0  0
    7.6073  -10.7963   -2.4471 H   0  0
    7.3930   -9.6597   -1.1207 H   0  0
    2.0463  -13.8580   -1.0665 H   0  0
    2.7487  -14.3517    0.4862 H   0  0
    1.8670  -12.2583    1.5400 H   0  0
    1.1629  -11.7763   -0.0026 H   0  0
   -0.2486  -13.8520   -0.0066 H   0  0
    0.4541  -14.3303    1.5403 H   0  0
   -1.7404  -13.2386    1.8685 H   0  0
   -1.1681  -11.7769    1.0466 H   0  0
   -0.4607  -12.2565    2.6020 H   0  0
    3.7085  -15.2836   -1.2647 H   0  0
    4.7123  -14.8557   -2.6344 H   0  0
    5.9448  -16.8633   -2.9107 H   0  0
    7.6967  -18.4070   -2.1792 H   0  0
    7.5434  -16.6701    1.7557 H   0  0
    5.7952  -15.1178    1.0251 H   0  0
   11.0333  -21.0663    0.9614 H   0  0
   12.7706  -19.4036    1.0782 H   0  0
   12.2405  -17.0089    0.6676 H   0  0
    9.9544  -16.3348    0.1304 H   0  0
    9.8120  -22.5202    0.2243 H   0  0
   10.5172  -11.6653    0.9297 H   0  0
   10.9793  -12.2914   -0.6817 H   0  0
   12.1444  -10.1082   -1.1426 H   0  0
   13.0737  -11.5796    1.4419 H   0  0
   14.1209  -10.5350    0.3755 H   0  0
   12.6318   -8.5701    0.7944 H   0  0
   11.5926   -9.5808    1.8883 H   0  0
  1  2  2  0
  1  6  1  0
  2  3  1  0
  2 13  1  0
  3  4  1  0
  3 17  1  0
  4  5  1  0
  4  8  2  0
  5  6  2  0
  5  9  1  0
  6  7  1  0
  7 40  1  0
  7 41  1  0
  7 42  1  0
  9 10  1  0
  9 43  1  0
  9 44  1  0
 10 11  1  0
 10 12  2  0
 11 36  1  0
 13 14  1  0
 13 45  1  0
 13 46  1  0
 14 15  1  0
 14 47  1  0
 14 48  1  0
 15 16  1  0
 15 49  1  0
 15 50  1  0
 16 51  1  0
 16 52  1  0
 16 53  1  0
 17 18  1  0
 17 54  1  0
 17 55  1  0
 18 19  2  0
 19 20  1  0
 19 56  1  0
 20 21  2  0
 20 57  1  0
 21 22  1  0
 21 24  1  0
 22 23  2  0
 22 58  1  0
 23 18  1  0
 23 59  1  0
 24 25  2  0
 25 26  1  0
 25 30  1  0
 26 27  2  0
 26 60  1  0
 27 28  1  0
 27 61  1  0
 28 29  2  0
 28 62  1  0
 29 24  1  0
 29 63  1  0
 30 31  2  0
 31 32  1  0
 32 33  1  0
 33 34  1  0
 33 35  2  0
 34 30  1  0
 34 64  1  0
 36 37  1  0
 36 65  1  0
 36 66  1  0
 37 39  1  0
 37 67  1  0
 38 37  1  0
 38 68  1  0
 38 69  1  0
 39 38  1  0
 39 70  1  0
 39 71  1  0
M  END
> <Name>
CHEMBL4469751

> <Clean Energy>
70.989304

> <chembl_id>
CHEMBL4469751

> <chembl_pref_name>
None

> <efficacy>
0.959164292

> <Forcefield>
MMFF

> <ForcefieldBase>
MMFF

> <ForcefieldFFML>
<?xml version="1.0" encoding="UTF-8"?>
<!DOCTYPE ffml SYSTEM "Ffml.dtd">
<ffml version="1.0">
<forcefield name="MMFF" derivedFrom="MMFF" base="MMFF">
<atomTypes>
<atomType
name="N100"
element="N"
mass="14.007"
annotation=""/>
<atomType
name="C101"
element="C"
mass="12.011"
annotation=""/>
<atomType
name="O102"
element="O"
mass="16"
annotation=""/>
<atomType
name="H103"
element="H"
mass="1.008"
annotation=""/>
</atomTypes>
<parameters>
</parameters>
</forcefield>
</ffml>

> <Initial Potential Energy>
167.43765

> <Initial RMS Gradient>
27.06292

> <Minimization Criteria>
CONJUG> Minimization exiting with gradient tolerance ( 0.0100000) satisfied.

> <CHARMm Energy>
4.4447

> <Potential Energy>
4.4447

> <RMS Gradient>
0.00879

> <Bond Energy>
12.23237

> <Angle Energy>
27.49473

> <STRBend>
1.41846

> <Dihedral Energy>
8.68579

> <OOPLane>
0.67188

> <Van der Waals Energy>
65.39027

> <Electrostatic Energy>
-111.44879

> <Hydrogen Bond Energy>
0

> <Solvation Free Energy>
0

> <HasGasteigerCharges>
true

> <REMARK99>
REMARK  99  MacroMolecule created from Mol2 file
REMARK  99  CHEMBL4469751
REMARK  99  PROTEIN
REMARK  99  GASTEIGER
REMARK  99
REMARK  99

$$$$
CHEMBL4761285
  SciTegic05292516403D

 52 55  0  0  0  0            999 V2000
   17.7257   -9.8796    0.5531 C   0  0
   17.6363  -11.2716    0.6554 C   0  0
   18.7696  -12.0836    0.4942 C   0  0
   18.9414   -9.2638    0.2383 C   0  0
   20.0748  -10.0646    0.0486 C   0  0
   19.9791  -11.4463    0.1854 C   0  0
   21.2606  -11.8943   -0.0418 N   0  0
   22.0515  -10.8018   -0.3288 C   0  0
   21.3484   -9.6872   -0.2719 N   0  0
   21.7095  -13.2656    0.0214 C   0  0
   23.4937  -10.8789   -0.6966 C   0  0
   24.1977  -11.4508    0.4120 O   0  0
   25.5558  -11.2963    0.3970 C   0  0
   26.1813  -11.4199    1.6398 C   0  0
   27.5627  -11.2555    1.7613 C   0  0
   28.3334  -10.9861    0.6312 C   0  0
   27.7146  -10.9042   -0.6218 C   0  0
   26.3258  -11.0495   -0.7380 C   0  0
   28.4816  -10.6227   -1.8573 C   0  0
   29.6945  -11.2128   -1.8864 O   0  0
   28.0290   -9.9631   -2.7763 O   0  0
   16.4733  -11.9425    0.9808 O   0  0
   15.2792  -11.3784    0.6009 C   0  0
   14.3561  -11.0952    1.6016 C   0  0
   13.1326  -10.5563    1.2309 C   0  0
   12.8070  -10.3180   -0.0607 N   0  0
   13.7130  -10.6359   -1.0116 C   0  0
   14.9582  -11.1663   -0.7354 C   0  0
   13.3930  -10.4446   -2.3423 O   0  0
   12.0579   -9.9766   -2.5381 C   0  0
   12.1050  -10.2228    2.2713 C   0  0
   16.8599   -9.2456    0.7166 H   0  0
   18.6959  -13.1601    0.5986 H   0  0
   19.0189   -8.1866    0.1413 H   0  0
   22.3968  -13.4588   -0.8056 H   0  0
   20.8547  -13.9396   -0.0678 H   0  0
   22.2075  -13.4181    0.9820 H   0  0
   23.6174  -11.5054   -1.5872 H   0  0
   23.8566   -9.8647   -0.9062 H   0  0
   25.5830  -11.6165    2.5271 H   0  0
   28.0291  -11.3197    2.7417 H   0  0
   29.4001  -10.8132    0.7469 H   0  0
   25.8779  -10.9651   -1.7245 H   0  0
   29.8481  -11.8627   -1.1761 H   0  0
   14.5911  -11.2874    2.6426 H   0  0
   15.6474  -11.4124   -1.5333 H   0  0
   11.8958   -9.8792   -3.6158 H   0  0
   11.9161   -8.9877   -2.0887 H   0  0
   11.3255  -10.6952   -2.1542 H   0  0
   11.2077   -9.7975    1.8104 H   0  0
   12.5063   -9.4889    2.9771 H   0  0
   11.8136  -11.1256    2.8170 H   0  0
  1  2  2  0
  1 32  1  0
  2  3  1  0
  2 22  1  0
  3  6  2  0
  3 33  1  0
  4  1  1  0
  4 34  1  0
  5  4  2  0
  5  6  1  0
  6  7  1  0
  7  8  1  0
  7 10  1  0
  8  9  2  0
  8 11  1  0
  9  5  1  0
 10 35  1  0
 10 36  1  0
 10 37  1  0
 11 12  1  0
 11 38  1  0
 11 39  1  0
 12 13  1  0
 13 14  2  0
 14 15  1  0
 14 40  1  0
 15 16  2  0
 15 41  1  0
 16 17  1  0
 16 42  1  0
 17 18  2  0
 17 19  1  0
 18 13  1  0
 18 43  1  0
 19 20  1  0
 19 21  2  0
 20 44  1  0
 22 23  1  0
 23 24  2  0
 24 25  1  0
 24 45  1  0
 25 26  2  0
 25 31  1  0
 26 27  1  0
 27 28  2  0
 27 29  1  0
 28 23  1  0
 28 46  1  0
 29 30  1  0
 30 47  1  0
 30 48  1  0
 30 49  1  0
 31 50  1  0
 31 51  1  0
 31 52  1  0
M  END
> <Name>
CHEMBL4761285

> <Clean Energy>
31.847401

> <chembl_id>
CHEMBL4761285

> <chembl_pref_name>
None

> <efficacy>
1.12

> <Forcefield>
MMFF

> <ForcefieldBase>
MMFF

> <ForcefieldFFML>
<?xml version="1.0" encoding="UTF-8"?>
<!DOCTYPE ffml SYSTEM "Ffml.dtd">
<ffml version="1.0">
<forcefield name="MMFF" derivedFrom="MMFF" base="MMFF">
<atomTypes>
<atomType
name="C100"
element="C"
mass="12.011"
annotation=""/>
<atomType
name="N101"
element="N"
mass="14.007"
annotation=""/>
<atomType
name="O102"
element="O"
mass="16"
annotation=""/>
<atomType
name="H103"
element="H"
mass="1.008"
annotation=""/>
</atomTypes>
<parameters>
</parameters>
</forcefield>
</ffml>

> <Initial Potential Energy>
178.72351

> <Initial RMS Gradient>
46.11764

> <Minimization Criteria>
STEEPD> Minimization exiting with gradient tolerance ( 3.0000000) satisfied.

> <CHARMm Energy>
39.23004

> <Potential Energy>
39.23004

> <RMS Gradient>
0.01227

> <Bond Energy>
4.10019

> <Angle Energy>
18.96023

> <STRBend>
0.50959

> <Dihedral Energy>
10.59592

> <OOPLane>
0.13149

> <Van der Waals Energy>
64.28575

> <Electrostatic Energy>
-59.35313

> <Hydrogen Bond Energy>
0

> <Solvation Free Energy>
0

> <HasGasteigerCharges>
true

> <REMARK99>
REMARK  99  MacroMolecule created from Mol2 file
REMARK  99  CHEMBL4761285
REMARK  99  PROTEIN
REMARK  99  GASTEIGER
REMARK  99
REMARK  99

$$$$
CHEMBL1935616
  SciTegic05292516403D

 75 77  0  0  0  0            999 V2000
   14.2105  -12.3973    0.0132 N   0  0
   15.3394  -13.0025    0.5524 C   0  0
   16.6439  -12.3067    0.4114 C   0  0
   15.2602  -14.0595    1.1741 O   0  0
   17.7740  -12.9365    0.7702 C   0  0
    9.3266  -11.0834   -0.9527 C   0  0
    9.2853  -12.0412    0.0600 C   0  0
   10.4706  -12.6769    0.4542 C   0  0
   10.5464  -10.7691   -1.5624 C   0  0
   11.7288  -11.4057   -1.1654 C   0  0
   11.7001  -12.3655   -0.1487 C   0  0
   12.9505  -13.1290    0.2088 C   0  0
   14.2053  -11.2014   -0.8696 C   0  0  1  0  0  0
   13.0355  -11.1368   -1.8556 C   0  0
   14.2906   -9.8919   -0.0682 C   0  0
   14.2693  -10.0575    1.2752 O   0  0
   14.4720   -8.7960   -0.5836 O   0  0
    8.1616  -12.4558    0.7246 O   0  0
    6.9192  -11.8301    0.3676 C   0  0
    5.7940  -12.4297    1.2183 C   0  0
    4.5044  -11.6877    1.1126 C   0  0
    4.1817  -10.4360    1.5817 C   0  0
    2.8783  -10.1963    1.2737 O   0  0
    2.4128  -11.3405    0.6455 C   0  0
    3.3832  -12.2438    0.5246 N   0  0
    4.9000   -9.3721    2.3034 C   0  0
    1.0620  -11.4457    0.2091 C   0  0
    0.5899  -12.5528   -0.3855 C   0  0
   -0.8237  -12.7068   -0.8678 C   0  0
   -1.5395  -13.8408   -0.1268 C   0  0
   -2.9491  -14.1358   -0.6734 C   0  0
   -3.5231  -15.3767    0.0152 C   0  0
   -3.9057  -12.9566   -0.4905 C   0  0
   19.1295  -12.3003    0.7239 C   0  0  2  0  0  0
   20.1187  -13.0510   -0.1718 C   0  0
   19.6499  -12.2986    2.0508 O   0  0
   19.7331  -13.0352   -1.6432 C   0  0
   16.6862  -11.2820    0.0710 H   0  0
   17.7449  -13.9636    1.1343 H   0  0
    8.4314  -10.5740   -1.3010 H   0  0
   10.4251  -13.4402    1.2297 H   0  0
   10.5683  -10.0292   -2.3596 H   0  0
   12.8983  -13.4417    1.2591 H   0  0
   12.9992  -14.0358   -0.4073 H   0  0
   15.1298  -11.2367   -1.4588 H   0  0
   13.1663  -11.9016   -2.6318 H   0  0
   13.0097  -10.1629   -2.3587 H   0  0
   13.9384  -10.9553    1.4978 H   0  0
    6.9933  -10.7518    0.5540 H   0  0
    6.6987  -12.0029   -0.6932 H   0  0
    5.6480  -13.4788    0.9326 H   0  0
    6.1069  -12.4556    2.2701 H   0  0
    4.2494   -8.8949    3.0429 H   0  0
    5.2460   -8.6056    1.6035 H   0  0
    5.7709   -9.7729    2.8308 H   0  0
    0.4251  -10.5858    0.3805 H   0  0
    1.2546  -13.4008   -0.5498 H   0  0
   -1.3702  -11.7660   -0.7393 H   0  0
   -0.8011  -12.9209   -1.9429 H   0  0
   -0.9343  -14.7542   -0.2041 H   0  0
   -1.6007  -13.5987    0.9426 H   0  0
   -2.8723  -14.3529   -1.7463 H   0  0
   -4.5108  -15.6243   -0.3882 H   0  0
   -3.6270  -15.2203    1.0944 H   0  0
   -2.8735  -16.2445   -0.1411 H   0  0
   -4.9154  -13.2208   -0.8232 H   0  0
   -3.5888  -12.0906   -1.0792 H   0  0
   -3.9653  -12.6529    0.5601 H   0  0
   19.0662  -11.2546    0.4009 H   0  0
   21.1136  -12.6019   -0.0573 H   0  0
   20.2259  -14.0889    0.1694 H   0  0
   18.9206  -12.0331    2.6398 H   0  0
   20.5072  -13.5282   -2.2398 H   0  0
   19.6262  -12.0090   -2.0090 H   0  0
   18.7912  -13.5642   -1.8173 H   0  0
  1  2  1  0
  1 13  1  0
  2  3  1  0
  2  4  2  0
  3  5  2  0
  3 38  1  0
  5 34  1  0
  5 39  1  0
  6  7  2  0
  6 40  1  0
  7  8  1  0
  7 18  1  0
  8 11  2  0
  8 41  1  0
  9  6  1  0
  9 42  1  0
 10  9  2  0
 10 11  1  0
 10 14  1  0
 11 12  1  0
 12  1  1  0
 12 43  1  0
 12 44  1  0
 13 14  1  0
 13 15  1  0
 13 45  1  0
 14 46  1  0
 14 47  1  0
 15 16  1  0
 15 17  2  0
 16 48  1  0
 18 19  1  0
 19 20  1  0
 19 49  1  0
 19 50  1  0
 20 21  1  0
 20 51  1  0
 20 52  1  0
 21 22  2  0
 22 23  1  0
 22 26  1  0
 23 24  1  0
 24 25  2  0
 24 27  1  0
 25 21  1  0
 26 53  1  0
 26 54  1  0
 26 55  1  0
 27 28  2  0
 27 56  1  0
 28 29  1  0
 28 57  1  0
 29 30  1  0
 29 58  1  0
 29 59  1  0
 30 31  1  0
 30 60  1  0
 30 61  1  0
 31 32  1  0
 31 33  1  0
 31 62  1  0
 32 63  1  0
 32 64  1  0
 32 65  1  0
 33 66  1  0
 33 67  1  0
 33 68  1  0
 34 35  1  0
 34 36  1  0
 34 69  1  0
 35 37  1  0
 35 70  1  0
 35 71  1  0
 36 72  1  0
 37 73  1  0
 37 74  1  0
 37 75  1  0
M  END
> <Name>
CHEMBL1935616

> <Clean Energy>
60.042599

> <chembl_id>
CHEMBL1935616

> <chembl_pref_name>
None

> <efficacy>
1.094736842

> <Forcefield>
MMFF

> <ForcefieldBase>
MMFF

> <ForcefieldFFML>
<?xml version="1.0" encoding="UTF-8"?>
<!DOCTYPE ffml SYSTEM "Ffml.dtd">
<ffml version="1.0">
<forcefield name="MMFF" derivedFrom="MMFF" base="MMFF">
<atomTypes>
<atomType
name="N100"
element="N"
mass="14.007"
annotation=""/>
<atomType
name="C101"
element="C"
mass="12.011"
annotation=""/>
<atomType
name="O102"
element="O"
mass="16"
annotation=""/>
<atomType
name="H103"
element="H"
mass="1.008"
annotation=""/>
</atomTypes>
<parameters>
</parameters>
</forcefield>
</ffml>

> <Initial Potential Energy>
119.64863

> <Initial RMS Gradient>
21.25999

> <Minimization Criteria>
CONJUG> Minimization exiting with gradient tolerance ( 0.0100000) satisfied.

> <CHARMm Energy>
13.68211

> <Potential Energy>
13.68211

> <RMS Gradient>
0.00984

> <Bond Energy>
6.683

> <Angle Energy>
19.58511

> <STRBend>
0.35398

> <Dihedral Energy>
-13.51114

> <OOPLane>
0.41731

> <Van der Waals Energy>
56.64586

> <Electrostatic Energy>
-56.492

> <Hydrogen Bond Energy>
0

> <Solvation Free Energy>
0

> <HasGasteigerCharges>
true

> <REMARK99>
REMARK  99  MacroMolecule created from Mol2 file
REMARK  99  CHEMBL1935616
REMARK  99  PROTEIN
REMARK  99  GASTEIGER
REMARK  99
REMARK  99

$$$$
CHEMBL3398429
  SciTegic05292516403D

 66 70  0  0  0  0            999 V2000
    1.2815   -1.1757   -0.3073 C   0  0
    1.3862   -0.0456    0.4957 C   0  0
   -2.6626   -3.1891   -0.2789 C   0  0
    0.0148   -1.6907   -0.6466 C   0  0
   -4.8409   -2.2141   -0.0830 C   0  0
   -3.7962   -1.1128    0.0696 C   0  0  2  0  0  0
   -4.3381    0.1089   -0.6131 C   0  0
   -3.9373   -5.7170   -0.3071 O   0  0
   -4.0881   -3.4404   -0.1949 N   0  0
   -1.1775   -1.1019   -0.1822 C   0  0
    0.2124    0.5581    0.9498 C   0  0
   -4.4364    0.3009   -1.8137 O   0  0
   -4.8780    0.9857    0.2577 O   0  0
   -1.0501    0.0438    0.6146 C   0  0
   -6.7630   -5.8524   -0.0147 C   0  0
   -6.0086   -4.6683   -0.0917 O   0  0
   -2.5247   -1.6858   -0.5963 C   0  0  1  0  0  0
   -4.6231   -4.7065   -0.2070 C   0  0
    8.2495   -3.2917    0.3498 C   0  0
    8.7856   -2.0138    0.1085 C   0  0
    9.0479   -4.4301    0.2218 C   0  0
    7.9217   -0.8506    0.2520 C   0  0
    6.2775    0.4792    0.5498 C   0  0
    3.7920    0.0278    0.4495 C   0  0
    4.9262    0.9082    1.0002 C   0  0
    6.7492   -0.7782    0.8482 N   0  0
   10.9253   -3.0425   -0.4006 C   0  0
   10.1295   -1.9017   -0.2723 C   0  0
    7.3727    2.5189   -0.7226 C   0  0
    7.2434    1.1617   -0.1623 C   0  0
    2.5415    0.5657    0.9013 O   0  0
   10.3849   -4.3037   -0.1521 C   0  0
    8.2925    0.3075   -0.3738 O   0  0
   -7.9922   -5.8387   -0.6748 C   0  0
   -8.8261   -6.9530   -0.5994 C   0  0
   -8.4305   -8.0665    0.1418 C   0  0
   -7.2058   -8.0682    0.8121 C   0  0
   -6.3711   -6.9523    0.7451 C   0  0
    2.1596   -1.6839   -0.6930 H   0  0
   -2.2243   -3.4478    0.6927 H   0  0
   -2.2050   -3.8275   -1.0420 H   0  0
   -0.0182   -2.5657   -1.2941 H   0  0
   -5.5087   -2.2644    0.7843 H   0  0
   -5.4621   -2.1136   -0.9806 H   0  0
   -3.6258   -0.9171    1.1349 H   0  0
    0.2781    1.4460    1.5745 H   0  0
   -5.2454    1.7054   -0.3033 H   0  0
   -1.9165    0.5736    0.9986 H   0  0
   -2.6037   -1.5521   -1.6849 H   0  0
    7.1996   -3.4018    0.6317 H   0  0
    8.6267   -5.4137    0.4121 H   0  0
    3.9077   -0.9998    0.8150 H   0  0
    3.8242    0.0323   -0.6467 H   0  0
    4.8907    0.8977    2.0969 H   0  0
    4.7417    1.9499    0.7096 H   0  0
   11.9670   -2.9454   -0.6945 H   0  0
   10.5641   -0.9240   -0.4677 H   0  0
    8.4236    2.8177   -0.7903 H   0  0
    6.8553    3.2500   -0.0941 H   0  0
    6.9390    2.5582   -1.7263 H   0  0
   11.0048   -5.1903   -0.2515 H   0  0
   -8.3024   -4.9679   -1.2450 H   0  0
   -9.7809   -6.9528   -1.1169 H   0  0
   -9.0791   -8.9353    0.1982 H   0  0
   -6.8999   -8.9379    1.3876 H   0  0
   -5.4275   -6.9556    1.2832 H   0  0
  1  4  2  0
  1 39  1  0
  2  1  1  0
  3  9  1  0
  3 40  1  0
  3 41  1  0
  4 10  1  0
  4 42  1  0
  5  6  1  0
  5 43  1  0
  5 44  1  0
  6  7  1  0
  6 17  1  0
  6 45  1  0
  7 12  2  0
  7 13  1  0
  9  5  1  0
  9 18  1  0
 10 14  2  0
 11  2  2  0
 11 46  1  0
 13 47  1  0
 14 11  1  0
 14 48  1  0
 15 34  2  0
 16 15  1  0
 17  3  1  0
 17 10  1  0
 17 49  1  0
 18  8  2  0
 18 16  1  0
 19 21  1  0
 19 50  1  0
 20 19  2  0
 21 32  2  0
 21 51  1  0
 22 20  1  0
 22 26  2  0
 23 25  1  0
 23 30  2  0
 24 31  1  0
 24 52  1  0
 24 53  1  0
 25 24  1  0
 25 54  1  0
 25 55  1  0
 26 23  1  0
 27 28  2  0
 27 56  1  0
 28 20  1  0
 28 57  1  0
 29 58  1  0
 29 59  1  0
 29 60  1  0
 30 29  1  0
 30 33  1  0
 31  2  1  0
 32 27  1  0
 32 61  1  0
 33 22  1  0
 34 35  1  0
 34 62  1  0
 35 36  2  0
 35 63  1  0
 36 37  1  0
 36 64  1  0
 37 38  2  0
 37 65  1  0
 38 15  1  0
 38 66  1  0
M  END
> <Name>
CHEMBL3398429

> <Clean Energy>
68.7369

> <chembl_id>
CHEMBL3398429

> <chembl_pref_name>
None

> <efficacy>
0.99

> <Forcefield>
MMFF

> <ForcefieldBase>
MMFF

> <ForcefieldFFML>
<?xml version="1.0" encoding="UTF-8"?>
<!DOCTYPE ffml SYSTEM "Ffml.dtd">
<ffml version="1.0">
<forcefield name="MMFF" derivedFrom="MMFF" base="MMFF">
<atomTypes>
<atomType
name="C100"
element="C"
mass="12.011"
annotation=""/>
<atomType
name="O101"
element="O"
mass="16"
annotation=""/>
<atomType
name="N102"
element="N"
mass="14.007"
annotation=""/>
<atomType
name="H103"
element="H"
mass="1.008"
annotation=""/>
</atomTypes>
<parameters>
</parameters>
</forcefield>
</ffml>

> <Initial Potential Energy>
140.72778

> <Initial RMS Gradient>
29.16537

> <Minimization Criteria>
STEEPD> Minimization exiting with gradient tolerance ( 3.0000000) satisfied.

> <CHARMm Energy>
33.70543

> <Potential Energy>
33.70543

> <RMS Gradient>
0.17041

> <Bond Energy>
7.38097

> <Angle Energy>
27.77005

> <STRBend>
-0.81662

> <Dihedral Energy>
7.14489

> <OOPLane>
0.4559

> <Van der Waals Energy>
62.24991

> <Electrostatic Energy>
-70.47967

> <Hydrogen Bond Energy>
0

> <Solvation Free Energy>
0

> <HasGasteigerCharges>
true

> <REMARK99>
REMARK  99  MacroMolecule created from Mol2 file
REMARK  99  CHEMBL3398429
REMARK  99  PROTEIN
REMARK  99  GASTEIGER
REMARK  99
REMARK  99

$$$$
CHEMBL3335660
  SciTegic05292516403D

 58 60  0  0  0  0            999 V2000
    5.7250  -11.9264    0.1484 C   0  0
    5.6499  -13.2170    0.6621 C   0  0
    6.7729  -14.0548    0.6481 C   0  0
    7.9960  -13.6161    0.1262 C   0  0
    8.0633  -12.2924   -0.3593 C   0  0
    6.9314  -11.4614   -0.3646 C   0  0
    9.3266  -11.6765   -0.8386 C   0  0
   10.3690  -11.7570    0.0689 N   0  0
    9.3392  -11.1458   -1.9406 O   0  0
   11.6558  -11.1907   -0.0543 C   0  0
    9.1371  -14.4607    0.0326 N   0  0
    9.2841  -15.7363    0.5545 C   0  0
   10.5812  -16.4201    0.2630 C   0  0
    8.4544  -16.3413    1.2233 O   0  0
   10.6026  -17.8189    0.2460 C   0  0
   11.7943  -18.5090   -0.0036 C   0  0
   13.0013  -17.8240   -0.2420 C   0  0
   12.9642  -16.4196   -0.2029 C   0  0
   11.7737  -15.7234    0.0497 C   0  0
   14.2974  -18.6125   -0.5077 C   0  0
   14.1008  -19.5623   -1.7098 C   0  0
   15.5155  -17.7192   -0.8355 C   0  0
   14.6564  -19.4415    0.7433 C   0  0
   12.5472  -11.3896    1.0031 C   0  0
   13.8347  -10.8279    0.9706 C   0  0
   14.2396  -10.0123   -0.0991 C   0  0
   13.3496   -9.8457   -1.1685 C   0  0
   12.0757  -10.4321   -1.1475 C   0  0
   14.7059  -11.1203    2.1292 C   0  0
   15.8817  -11.6711    1.7681 O   0  0
   14.3491  -10.9601    3.2820 O   0  0
   15.5713   -9.3140   -0.1397 C   0  0
    4.8472  -11.2845    0.1525 H   0  0
    4.7087  -13.5858    1.0669 H   0  0
    6.6403  -15.0614    1.0345 H   0  0
    6.9949  -10.4472   -0.7562 H   0  0
   10.1607  -12.2103    0.9543 H   0  0
    9.8992  -14.1011   -0.5298 H   0  0
    9.6899  -18.3843    0.4320 H   0  0
   11.7645  -19.5987    0.0003 H   0  0
   13.8638  -15.8292   -0.3554 H   0  0
   11.8201  -14.6406    0.1035 H   0  0
   15.0268  -20.1010   -1.9429 H   0  0
   13.8040  -19.0059   -2.6069 H   0  0
   13.3317  -20.3192   -1.5217 H   0  0
   16.4070  -18.3254   -1.0366 H   0  0
   15.7647  -17.0514   -0.0027 H   0  0
   15.3351  -17.1040   -1.7249 H   0  0
   15.5907  -19.9956    0.5960 H   0  0
   13.8813  -20.1759    0.9887 H   0  0
   14.7865  -18.7964    1.6204 H   0  0
   12.2532  -11.9743    1.8735 H   0  0
   13.6253   -9.2284   -2.0240 H   0  0
   11.4229  -10.2468   -1.9964 H   0  0
   15.9832  -11.8334    0.8112 H   0  0
   15.5302   -8.4293   -0.7848 H   0  0
   16.3403   -9.9876   -0.5300 H   0  0
   15.8645   -8.9643    0.8553 H   0  0
  1  2  2  0
  1 33  1  0
  2  3  1  0
  2 34  1  0
  3  4  2  0
  3 35  1  0
  4  5  1  0
  4 11  1  0
  5  6  2  0
  5  7  1  0
  6  1  1  0
  6 36  1  0
  7  8  1  0
  7  9  2  0
  8 10  1  0
  8 37  1  0
 10 24  2  0
 11 12  1  0
 11 38  1  0
 12 13  1  0
 12 14  2  0
 13 15  2  0
 15 16  1  0
 15 39  1  0
 16 17  2  0
 16 40  1  0
 17 18  1  0
 17 20  1  0
 18 19  2  0
 18 41  1  0
 19 13  1  0
 19 42  1  0
 20 21  1  0
 20 22  1  0
 20 23  1  0
 21 43  1  0
 21 44  1  0
 21 45  1  0
 22 46  1  0
 22 47  1  0
 22 48  1  0
 23 49  1  0
 23 50  1  0
 23 51  1  0
 24 25  1  0
 24 52  1  0
 25 26  2  0
 25 29  1  0
 26 27  1  0
 26 32  1  0
 27 28  2  0
 27 53  1  0
 28 10  1  0
 28 54  1  0
 29 30  1  0
 29 31  2  0
 30 55  1  0
 32 56  1  0
 32 57  1  0
 32 58  1  0
M  END
> <Name>
CHEMBL3335660

> <Clean Energy>
15.5143

> <chembl_id>
CHEMBL3335660

> <chembl_pref_name>
None

> <efficacy>
0.930674264

> <Forcefield>
MMFF

> <ForcefieldBase>
MMFF

> <ForcefieldFFML>
<?xml version="1.0" encoding="UTF-8"?>
<!DOCTYPE ffml SYSTEM "Ffml.dtd">
<ffml version="1.0">
<forcefield name="MMFF" derivedFrom="MMFF" base="MMFF">
<atomTypes>
<atomType
name="C100"
element="C"
mass="12.011"
annotation=""/>
<atomType
name="N101"
element="N"
mass="14.007"
annotation=""/>
<atomType
name="O102"
element="O"
mass="16"
annotation=""/>
<atomType
name="H103"
element="H"
mass="1.008"
annotation=""/>
</atomTypes>
<parameters>
</parameters>
</forcefield>
</ffml>

> <Initial Potential Energy>
247.53164

> <Initial RMS Gradient>
67.33442

> <Minimization Criteria>
STEEPD> Minimization exiting with gradient tolerance ( 3.0000000) satisfied.

> <CHARMm Energy>
80.84755

> <Potential Energy>
80.84755

> <RMS Gradient>
0.06087

> <Bond Energy>
8.94388

> <Angle Energy>
13.84785

> <STRBend>
2.10821

> <Dihedral Energy>
16.15861

> <OOPLane>
0.23187

> <Van der Waals Energy>
75.00674

> <Electrostatic Energy>
-35.44959

> <Hydrogen Bond Energy>
0

> <Solvation Free Energy>
0

> <HasGasteigerCharges>
true

> <REMARK99>
REMARK  99  MacroMolecule created from Mol2 file
REMARK  99  CHEMBL3335660
REMARK  99  PROTEIN
REMARK  99  GASTEIGER
REMARK  99
REMARK  99

$$$$
CHEMBL5074074
  SciTegic05292516403D

 59 62  0  0  0  0            999 V2000
   31.3821  -26.0734    2.5446 F   0  0
   32.3000  -26.2915    1.5622 C   0  0
   32.2077  -25.2246    0.7223 F   0  0
   27.0940  -31.0463    0.7385 O   0  0
   28.0314  -29.9403    0.6309 S   0  0
   27.8049  -28.7185    1.3809 O   0  0
   31.0274  -28.4390    1.1885 C   0  0
   30.7715  -29.6573    0.5418 C   0  0
   31.6224  -30.0413   -0.4985 C   0  0
   32.7163  -29.2468   -0.8563 C   0  0
   33.0121  -28.0488   -0.1778 C   0  0
   32.1247  -27.6166    0.8363 C   0  0
   34.2736  -27.2935   -0.5699 C   0  0
   35.4649  -28.1112   -0.4134 N   0  0
   36.7287  -27.5956   -0.6107 C   0  0
   37.8539  -28.5505   -0.4650 C   0  0
   36.9797  -26.4263   -0.8808 O   0  0
   37.8612  -29.7757   -1.1385 C   0  0
   38.9759  -30.6223   -1.0804 C   0  0
   38.9650  -28.1432    0.2850 C   0  0
   40.0914  -28.9858    0.3645 C   0  0
   40.0850  -30.2016   -0.3259 C   0  0
   41.3229  -30.7825   -0.1174 N   0  0
   42.0874  -29.9900    0.7023 C   0  0
   41.3485  -28.8740    1.0177 C   0  0
   41.7902  -32.0302   -0.6962 C   0  0
   29.6605  -30.5735    0.9989 C   0  0
   28.0700  -29.5286   -1.1431 C   0  0
   33.5205  -26.2079    2.1648 F   0  0
   41.4621  -33.2304    0.1803 C   0  0
   41.9439  -34.4096   -0.4656 O   0  0
   41.7229  -35.5682    0.3283 C   0  0
   28.1688  -28.0657   -1.4762 C   0  0
   26.8453  -28.7734   -1.5977 C   0  0
   30.3666  -28.1177    1.9975 H   0  0
   31.4677  -30.9792   -1.0297 H   0  0
   33.3596  -29.5807   -1.6699 H   0  0
   34.2036  -26.9941   -1.6226 H   0  0
   34.4140  -26.3781    0.0103 H   0  0
   35.3688  -29.0650   -0.0916 H   0  0
   37.0111  -30.0640   -1.7529 H   0  0
   39.0057  -31.5537   -1.6383 H   0  0
   38.9808  -27.1728    0.7766 H   0  0
   43.0944  -30.2765    0.9817 H   0  0
   41.6735  -28.0501    1.6392 H   0  0
   41.3523  -32.1384   -1.6948 H   0  0
   42.8735  -31.9499   -0.8482 H   0  0
   29.7369  -31.5531    0.5145 H   0  0
   29.7177  -30.7314    2.0810 H   0  0
   28.4954  -30.2618   -1.8117 H   0  0
   41.9405  -33.1261    1.1618 H   0  0
   40.3791  -33.3139    0.3293 H   0  0
   42.0999  -36.4368   -0.2181 H   0  0
   40.6534  -35.7080    0.5127 H   0  0
   42.2627  -35.4908    1.2770 H   0  0
   28.2805  -27.3361   -0.6815 H   0  0
   28.6822  -27.7889   -2.3902 H   0  0
   26.4658  -28.9739   -2.5927 H   0  0
   26.0731  -28.5301   -0.8746 H   0  0
  2  1  1  0
  2 29  1  0
  3  2  1  0
  5  4  2  0
  5 28  1  0
  6  5  2  0
  7  8  2  0
  7 35  1  0
  8  9  1  0
  8 27  1  0
  9 10  2  0
  9 36  1  0
 10 11  1  0
 10 37  1  0
 11 12  2  0
 11 13  1  0
 12  2  1  0
 12  7  1  0
 13 14  1  0
 13 38  1  0
 13 39  1  0
 14 15  1  0
 14 40  1  0
 15 16  1  0
 15 17  2  0
 16 18  2  0
 18 19  1  0
 18 41  1  0
 19 22  2  0
 19 42  1  0
 20 16  1  0
 20 43  1  0
 21 20  2  0
 21 22  1  0
 22 23  1  0
 23 24  1  0
 23 26  1  0
 24 25  2  0
 24 44  1  0
 25 21  1  0
 25 45  1  0
 26 30  1  0
 26 46  1  0
 26 47  1  0
 27  5  1  0
 27 48  1  0
 27 49  1  0
 28 34  1  0
 28 50  1  0
 30 31  1  0
 30 51  1  0
 30 52  1  0
 31 32  1  0
 32 53  1  0
 32 54  1  0
 32 55  1  0
 33 28  1  0
 33 56  1  0
 33 57  1  0
 34 33  1  0
 34 58  1  0
 34 59  1  0
M  END
> <Name>
CHEMBL5074074

> <Clean Energy>
76.852402

> <chembl_id>
CHEMBL5074074

> <chembl_pref_name>
None

> <efficacy>
2.184235518

> <Forcefield>
MMFF

> <ForcefieldBase>
MMFF

> <ForcefieldFFML>
<?xml version="1.0" encoding="UTF-8"?>
<!DOCTYPE ffml SYSTEM "Ffml.dtd">
<ffml version="1.0">
<forcefield name="MMFF" derivedFrom="MMFF" base="MMFF">
<atomTypes>
<atomType
name="F100"
element="F"
mass="18.998"
annotation=""/>
<atomType
name="C101"
element="C"
mass="12.011"
annotation=""/>
<atomType
name="O102"
element="O"
mass="16"
annotation=""/>
<atomType
name="S103"
element="S"
mass="32.066"
annotation=""/>
<atomType
name="N104"
element="N"
mass="14.007"
annotation=""/>
<atomType
name="H105"
element="H"
mass="1.008"
annotation=""/>
</atomTypes>
<parameters>
</parameters>
</forcefield>
</ffml>

> <Initial Potential Energy>
191.81788

> <Initial RMS Gradient>
27.38034

> <Minimization Criteria>
STEEPD> Minimization exiting with gradient tolerance ( 3.0000000) satisfied.

> <CHARMm Energy>
108.77862

> <Potential Energy>
108.77862

> <RMS Gradient>
0.01292

> <Bond Energy>
6.26754

> <Angle Energy>
9.62771

> <STRBend>
0.49408

> <Dihedral Energy>
13.31287

> <OOPLane>
0.09159

> <Van der Waals Energy>
44.33394

> <Electrostatic Energy>
34.6509

> <Hydrogen Bond Energy>
0

> <Solvation Free Energy>
0

> <HasGasteigerCharges>
true

> <REMARK99>
REMARK  99  MacroMolecule created from Mol2 file
REMARK  99  CHEMBL5074074
REMARK  99  PROTEIN
REMARK  99  GASTEIGER
REMARK  99
REMARK  99

$$$$
CHEMBL393005
  SciTegic05292516403D

 65 67  0  0  0  0            999 V2000
    4.9705  -16.9593   -0.2584 C   0  0
    4.6466  -17.4364    1.0089 C   0  0
    5.2504  -16.8919    2.1401 C   0  0
    6.1957  -15.8752    2.0032 C   0  0
    6.5423  -15.3891    0.7317 C   0  0
    5.9089  -15.9375   -0.3969 C   0  0
    7.5655  -14.2705    0.5955 C   0  0  1  0  0  0
    8.7322  -14.6924   -0.3030 C   0  0
    6.8395  -13.1629    0.0306 O   0  0
    7.0213  -11.9505    0.6086 C   0  0
    6.0075  -11.0794    0.3503 N   0  0
    7.9939  -11.6608    1.2945 O   0  0
    4.8011  -11.4027   -0.3787 C   0  0
    9.9956  -13.8746   -0.0130 C   0  0
   11.2431  -14.5727   -0.4990 C   0  0
   12.0327  -14.0149   -1.5085 C   0  0
   13.2029  -14.6542   -1.9218 C   0  0
   13.5971  -15.8625   -1.3328 C   0  0
   12.7896  -16.4380   -0.3449 C   0  0
   11.6340  -15.7889    0.0794 C   0  0
   14.8987  -16.5197   -1.7181 C   0  0
   15.8995  -16.5347   -0.5601 C   0  0  1  0  0  0
   17.0361  -17.4842   -0.9311 C   0  0
   18.2037  -16.8131   -1.1199 O   0  0
   16.9531  -18.6965   -1.0614 O   0  0
   16.5412  -15.2400   -0.3955 O   0  0
   15.9806  -14.4975    0.6921 C   0  0
   16.6888  -13.1590    0.7613 C   0  0
    3.8125  -10.2689   -0.3280 C   0  0
    3.8682   -9.2328   -1.2702 C   0  0
    2.9617   -8.1730   -1.2099 C   0  0
    1.9969   -8.1339   -0.2043 C   0  0
    1.9416   -9.1518    0.7465 C   0  0
    2.8480  -10.2120    0.6884 C   0  0
    4.4819  -17.3797   -1.1346 H   0  0
    3.9111  -18.2303    1.1175 H   0  0
    4.9723  -17.2600    3.1267 H   0  0
    6.6615  -15.4646    2.8967 H   0  0
    6.1448  -15.5662   -1.3919 H   0  0
    7.9310  -14.0281    1.6017 H   0  0
    8.9367  -15.7577   -0.1379 H   0  0
    8.4728  -14.5822   -1.3639 H   0  0
    6.0945  -10.1607    0.7645 H   0  0
    5.0751  -11.6318   -1.4153 H   0  0
    4.3643  -12.3155    0.0438 H   0  0
    9.9044  -12.8830   -0.4723 H   0  0
   10.1151  -13.7061    1.0648 H   0  0
   11.7466  -13.0722   -1.9702 H   0  0
   13.8118  -14.1889   -2.6940 H   0  0
   13.0636  -17.3857    0.1149 H   0  0
   11.0323  -16.2351    0.8686 H   0  0
   14.6722  -17.5399   -2.0540 H   0  0
   15.3354  -15.9990   -2.5801 H   0  0
   15.4889  -16.8852    0.3939 H   0  0
   18.0115  -15.8584   -0.9413 H   0  0
   14.9106  -14.3377    0.5426 H   0  0
   16.1362  -15.0468    1.6269 H   0  0
   16.3013  -12.5545    1.5860 H   0  0
   16.5580  -12.6058   -0.1747 H   0  0
   17.7659  -13.2991    0.9008 H   0  0
    4.6226   -9.2488   -2.0546 H   0  0
    3.0131   -7.3753   -1.9466 H   0  0
    1.2918   -7.3068   -0.1591 H   0  0
    1.1943   -9.1186    1.5352 H   0  0
    2.8042  -10.9977    1.4402 H   0  0
  1  2  2  0
  1 35  1  0
  2  3  1  0
  2 36  1  0
  3  4  2  0
  3 37  1  0
  4  5  1  0
  4 38  1  0
  5  6  2  0
  5  7  1  0
  6  1  1  0
  6 39  1  0
  7  8  1  0
  7  9  1  0
  7 40  1  0
  8 14  1  0
  8 41  1  0
  8 42  1  0
  9 10  1  0
 10 11  1  0
 10 12  2  0
 11 13  1  0
 11 43  1  0
 13 29  1  0
 13 44  1  0
 13 45  1  0
 14 15  1  0
 14 46  1  0
 14 47  1  0
 15 16  2  0
 16 17  1  0
 16 48  1  0
 17 18  2  0
 17 49  1  0
 18 19  1  0
 18 21  1  0
 19 20  2  0
 19 50  1  0
 20 15  1  0
 20 51  1  0
 21 22  1  0
 21 52  1  0
 21 53  1  0
 22 23  1  0
 22 26  1  0
 22 54  1  0
 23 24  1  0
 23 25  2  0
 24 55  1  0
 26 27  1  0
 27 28  1  0
 27 56  1  0
 27 57  1  0
 28 58  1  0
 28 59  1  0
 28 60  1  0
 29 30  2  0
 30 31  1  0
 30 61  1  0
 31 32  2  0
 31 62  1  0
 32 33  1  0
 32 63  1  0
 33 34  2  0
 33 64  1  0
 34 29  1  0
 34 65  1  0
M  END
> <Name>
CHEMBL393005

> <Clean Energy>
29.119801

> <chembl_id>
CHEMBL393005

> <chembl_pref_name>
None

> <efficacy>
1.6

> <Forcefield>
MMFF

> <ForcefieldBase>
MMFF

> <ForcefieldFFML>
<?xml version="1.0" encoding="UTF-8"?>
<!DOCTYPE ffml SYSTEM "Ffml.dtd">
<ffml version="1.0">
<forcefield name="MMFF" derivedFrom="MMFF" base="MMFF">
<atomTypes>
<atomType
name="C100"
element="C"
mass="12.011"
annotation=""/>
<atomType
name="O101"
element="O"
mass="16"
annotation=""/>
<atomType
name="N102"
element="N"
mass="14.007"
annotation=""/>
<atomType
name="H103"
element="H"
mass="1.008"
annotation=""/>
</atomTypes>
<parameters>
</parameters>
</forcefield>
</ffml>

> <Initial Potential Energy>
111.72762

> <Initial RMS Gradient>
26.55204

> <Minimization Criteria>
CONJUG> Minimization exiting with gradient tolerance ( 0.0100000) satisfied.

> <CHARMm Energy>
-2.23521

> <Potential Energy>
-2.23521

> <RMS Gradient>
0.00902

> <Bond Energy>
6.67178

> <Angle Energy>
6.71906

> <STRBend>
0.46286

> <Dihedral Energy>
4.13866

> <OOPLane>
0.04085

> <Van der Waals Energy>
67.91726

> <Electrostatic Energy>
-88.18568

> <Hydrogen Bond Energy>
0

> <Solvation Free Energy>
0

> <HasGasteigerCharges>
true

> <REMARK99>
REMARK  99  MacroMolecule created from Mol2 file
REMARK  99  CHEMBL393005
REMARK  99  PROTEIN
REMARK  99  GASTEIGER
REMARK  99
REMARK  99

$$$$
CHEMBL5089010
  SciTegic05292516403D

 61 63  0  0  0  0            999 V2000
   36.5234   -7.1968    1.2734 C   0  0
   36.6045   -6.4533   -0.0725 C   0  0
   37.2777   -5.0881    0.1379 C   0  0
   32.2975   -5.8562    1.2659 C   0  0
   31.7684   -7.1502    1.1983 C   0  0
   32.4365   -8.1114    0.4335 C   0  0
   33.6459   -7.8168   -0.2201 C   0  0
   34.1834   -6.5200   -0.0979 C   0  0
   33.4706   -5.5077    0.5760 C   0  0
   35.3451   -6.1978   -0.7450 O   0  0
   37.4842   -7.2514   -1.0723 C   0  0
   38.7223   -7.5805   -0.6261 O   0  0
   37.1366   -7.5759   -2.2010 O   0  0
   30.4351   -7.4673    1.8374 C   0  0
   29.3491   -6.9244    1.0619 N   0  0
   28.7229   -5.6990    1.3064 C   0  0
   27.9347   -5.4664    0.1928 N   0  0
   28.1407   -6.5421   -0.6024 C   0  0
   28.9587   -7.4383   -0.1483 N   0  0
   28.8976   -5.0072    2.2998 O   0  0
   27.1456   -4.3268   -0.0784 C   0  0
   26.9808   -3.3127    0.8752 C   0  0
   26.2216   -2.1672    0.6074 C   0  0
   25.6050   -2.0078   -0.6274 C   0  0
   25.7622   -3.0068   -1.5874 C   0  0
   26.5154   -4.1556   -1.3173 C   0  0
   33.9077   -4.0597    0.5606 C   0  0
   32.8254   -3.1001    0.0738 C   0  0
   34.2550   -8.8810   -1.1038 C   0  0
   33.9447   -8.6473   -2.5752 C   0  0
   24.8364   -0.9531   -1.0204 O   0  0
   24.6167    0.0805   -0.0781 C   0  0
   25.7734    0.6640    0.2990 F   0  0
   23.8468    1.0255   -0.6584 F   0  0
   23.9615   -0.3770    1.0100 F   0  0
   36.1565   -8.2205    1.1484 H   0  0
   35.8566   -6.6886    1.9784 H   0  0
   37.5027   -7.2697    1.7583 H   0  0
   37.2900   -4.5110   -0.7942 H   0  0
   38.3104   -5.1810    0.4891 H   0  0
   36.7347   -4.4918    0.8778 H   0  0
   31.7513   -5.0946    1.8223 H   0  0
   31.9865   -9.0960    0.3134 H   0  0
   38.9798   -7.2552    0.2563 H   0  0
   30.2881   -8.5493    1.9279 H   0  0
   30.4109   -7.0487    2.8502 H   0  0
   27.6322   -6.6242   -1.5682 H   0  0
   27.4263   -3.3760    1.8640 H   0  0
   26.1409   -1.4286    1.4005 H   0  0
   25.2945   -2.8969   -2.5636 H   0  0
   26.5901   -4.8873   -2.1156 H   0  0
   34.2343   -3.7780    1.5684 H   0  0
   34.7649   -3.9229   -0.1037 H   0  0
   33.2264   -2.0831    0.0132 H   0  0
   31.9647   -3.0747    0.7492 H   0  0
   32.4670   -3.3837   -0.9219 H   0  0
   35.3331   -8.9407   -0.9434 H   0  0
   33.8716   -9.8677   -0.8138 H   0  0
   34.3919   -9.4383   -3.1855 H   0  0
   34.3389   -7.6875   -2.9239 H   0  0
   32.8643   -8.6502   -2.7551 H   0  0
  1 36  1  0
  1 37  1  0
  1 38  1  0
  2  1  1  0
  2 11  1  0
  3  2  1  0
  3 39  1  0
  3 40  1  0
  3 41  1  0
  4  5  2  0
  4 42  1  0
  5  6  1  0
  5 14  1  0
  6  7  2  0
  6 43  1  0
  7  8  1  0
  7 29  1  0
  8  9  2  0
  8 10  1  0
  9  4  1  0
  9 27  1  0
 10  2  1  0
 11 12  1  0
 11 13  2  0
 12 44  1  0
 14 15  1  0
 14 45  1  0
 14 46  1  0
 15 16  1  0
 16 17  1  0
 16 20  2  0
 17 18  1  0
 17 21  1  0
 18 19  2  0
 18 47  1  0
 19 15  1  0
 21 22  2  0
 22 23  1  0
 22 48  1  0
 23 24  2  0
 23 49  1  0
 24 25  1  0
 24 31  1  0
 25 26  2  0
 25 50  1  0
 26 21  1  0
 26 51  1  0
 27 28  1  0
 27 52  1  0
 27 53  1  0
 28 54  1  0
 28 55  1  0
 28 56  1  0
 29 30  1  0
 29 57  1  0
 29 58  1  0
 30 59  1  0
 30 60  1  0
 30 61  1  0
 31 32  1  0
 32 33  1  0
 32 34  1  0
 32 35  1  0
M  END
> <Name>
CHEMBL5089010

> <Clean Energy>
70.8283

> <chembl_id>
CHEMBL5089010

> <chembl_pref_name>
None

> <efficacy>
1.25

> <Forcefield>
MMFF

> <ForcefieldBase>
MMFF

> <ForcefieldFFML>
<?xml version="1.0" encoding="UTF-8"?>
<!DOCTYPE ffml SYSTEM "Ffml.dtd">
<ffml version="1.0">
<forcefield name="MMFF" derivedFrom="MMFF" base="MMFF">
<atomTypes>
<atomType
name="C100"
element="C"
mass="12.011"
annotation=""/>
<atomType
name="O101"
element="O"
mass="16"
annotation=""/>
<atomType
name="N102"
element="N"
mass="14.007"
annotation=""/>
<atomType
name="F103"
element="F"
mass="18.998"
annotation=""/>
<atomType
name="H104"
element="H"
mass="1.008"
annotation=""/>
</atomTypes>
<parameters>
</parameters>
</forcefield>
</ffml>

> <Initial Potential Energy>
259.84273

> <Initial RMS Gradient>
30.48304

> <Minimization Criteria>
STEEPD> Minimization exiting with gradient tolerance ( 3.0000000) satisfied.

> <CHARMm Energy>
100.34949

> <Potential Energy>
100.34949

> <RMS Gradient>
0.05353

> <Bond Energy>
7.38922

> <Angle Energy>
38.23803

> <STRBend>
-0.51139

> <Dihedral Energy>
4.46533

> <OOPLane>
0.32485

> <Van der Waals Energy>
61.50947

> <Electrostatic Energy>
-11.06601

> <Hydrogen Bond Energy>
0

> <Solvation Free Energy>
0

> <HasGasteigerCharges>
true

> <REMARK99>
REMARK  99  MacroMolecule created from Mol2 file
REMARK  99  CHEMBL5089010
REMARK  99  PROTEIN
REMARK  99  GASTEIGER
REMARK  99
REMARK  99

$$$$
CHEMBL374323
  SciTegic05292516403D

 55 57  0  0  0  0            999 V2000
   14.5034   -3.4711    3.1956 C   0  0
   13.4497   -2.7824    2.6230 C   0  0
   13.6012   -1.7397    1.7800 N   0  0
   14.8734   -1.3719    1.4953 C   0  0
   16.0062   -2.0336    1.9652 C   0  0
   15.7973   -3.0925    2.8578 C   0  0
   12.1871   -3.2281    2.9547 O   0  0
   11.1384   -2.6987    2.1384 C   0  0
   11.0662   -3.4295    0.7973 C   0  0
    9.9177   -2.9696   -0.0172 C   0  0
    9.8961   -2.2012   -1.1595 C   0  0
    8.5907   -2.0189   -1.5164 O   0  0
    7.8717   -2.6869   -0.5547 C   0  0
    8.6300   -3.2841    0.3486 N   0  0
    6.4186   -2.6026   -0.6373 C   0  0
    5.7772   -1.8432   -1.6274 C   0  0
    4.3858   -1.7460   -1.6591 C   0  0
    3.6202   -2.4093   -0.7027 C   0  0
    4.2405   -3.1740    0.2818 C   0  0
    5.6315   -3.2702    0.3133 C   0  0
   10.9222   -1.5712   -2.0069 C   0  0
   17.4126   -1.6356    1.6100 C   0  0
   17.7737   -1.2901    0.1438 C   0  0  1  0  0  0
   19.2361   -0.8367    0.1916 C   0  0
   20.1188   -1.8411    0.4310 O   0  0
   19.6175    0.3178    0.0592 O   0  0
   17.5863   -2.4086   -0.9307 C   0  0
   16.1338   -2.8455   -1.1400 C   0  0
   18.1331   -1.9515   -2.2957 C   0  0
   14.3156   -4.2935    3.8761 H   0  0
   14.9480   -0.5102    0.8371 H   0  0
   16.6348   -3.6311    3.2954 H   0  0
   10.2080   -2.8718    2.6937 H   0  0
   11.2110   -1.6092    2.0245 H   0  0
   12.0001   -3.3035    0.2377 H   0  0
   10.9790   -4.5086    0.9763 H   0  0
    6.3599   -1.3106   -2.3759 H   0  0
    3.9002   -1.1490   -2.4264 H   0  0
    2.5382   -2.3289   -0.7229 H   0  0
    3.6437   -3.6916    1.0284 H   0  0
    6.1045   -3.8653    1.0927 H   0  0
   10.5176   -0.7031   -2.5362 H   0  0
   11.2916   -2.2848   -2.7494 H   0  0
   11.7704   -1.2318   -1.4041 H   0  0
   17.6608   -0.7723    2.2445 H   0  0
   18.0834   -2.4375    1.9470 H   0  0
   17.1855   -0.4172   -0.1696 H   0  0
   19.6793   -2.7084    0.5248 H   0  0
   18.1469   -3.3039   -0.6367 H   0  0
   16.0469   -3.5093   -2.0079 H   0  0
   15.4791   -1.9863   -1.3164 H   0  0
   15.7598   -3.4166   -0.2879 H   0  0
   17.9756   -2.7229   -3.0578 H   0  0
   19.2098   -1.7605   -2.2582 H   0  0
   17.6341   -1.0368   -2.6339 H   0  0
  1  2  2  0
  1 30  1  0
  2  3  1  0
  2  7  1  0
  3  4  2  0
  4  5  1  0
  4 31  1  0
  5  6  2  0
  5 22  1  0
  6  1  1  0
  6 32  1  0
  7  8  1  0
  8  9  1  0
  8 33  1  0
  8 34  1  0
  9 10  1  0
  9 35  1  0
  9 36  1  0
 10 11  2  0
 11 12  1  0
 11 21  1  0
 12 13  1  0
 13 14  2  0
 13 15  1  0
 14 10  1  0
 15 16  2  0
 16 17  1  0
 16 37  1  0
 17 18  2  0
 17 38  1  0
 18 19  1  0
 18 39  1  0
 19 20  2  0
 19 40  1  0
 20 15  1  0
 20 41  1  0
 21 42  1  0
 21 43  1  0
 21 44  1  0
 22 23  1  0
 22 45  1  0
 22 46  1  0
 23 24  1  0
 23 27  1  0
 23 47  1  0
 24 25  1  0
 24 26  2  0
 25 48  1  0
 27 28  1  0
 27 29  1  0
 27 49  1  0
 28 50  1  0
 28 51  1  0
 28 52  1  0
 29 53  1  0
 29 54  1  0
 29 55  1  0
M  END
> <Name>
CHEMBL374323

> <Clean Energy>
42.910301

> <chembl_id>
CHEMBL374323

> <chembl_pref_name>
None

> <efficacy>
0.945652174

> <Forcefield>
MMFF

> <ForcefieldBase>
MMFF

> <ForcefieldFFML>
<?xml version="1.0" encoding="UTF-8"?>
<!DOCTYPE ffml SYSTEM "Ffml.dtd">
<ffml version="1.0">
<forcefield name="MMFF" derivedFrom="MMFF" base="MMFF">
<atomTypes>
<atomType
name="C100"
element="C"
mass="12.011"
annotation=""/>
<atomType
name="N101"
element="N"
mass="14.007"
annotation=""/>
<atomType
name="O102"
element="O"
mass="16"
annotation=""/>
<atomType
name="H103"
element="H"
mass="1.008"
annotation=""/>
</atomTypes>
<parameters>
</parameters>
</forcefield>
</ffml>

> <Initial Potential Energy>
110.70801

> <Initial RMS Gradient>
26.34041

> <Minimization Criteria>
STEEPD> Minimization exiting with gradient tolerance ( 3.0000000) satisfied.

> <CHARMm Energy>
23.96581

> <Potential Energy>
23.96581

> <RMS Gradient>
0.0745

> <Bond Energy>
5.04897

> <Angle Energy>
12.1387

> <STRBend>
1.15781

> <Dihedral Energy>
-4.07609

> <OOPLane>
0.0544

> <Van der Waals Energy>
50.15256

> <Electrostatic Energy>
-40.51054

> <Hydrogen Bond Energy>
0

> <Solvation Free Energy>
0

> <HasGasteigerCharges>
true

> <REMARK99>
REMARK  99  MacroMolecule created from Mol2 file
REMARK  99  CHEMBL374323
REMARK  99  PROTEIN
REMARK  99  GASTEIGER
REMARK  99
REMARK  99

$$$$
CHEMBL3597432
  SciTegic05292516403D

 60 63  0  0  0  0            999 V2000
   -2.1683    1.1692   -0.0812 C   0  0
   -2.3318   -0.1914    0.1761 C   0  0
   -1.2361   -1.0467    0.3071 C   0  0
   -0.8797    1.7084   -0.2097 C   0  0
    0.2528    0.8671   -0.0763 C   0  0
    0.0452   -0.4929    0.1755 C   0  0
    1.2860   -1.0834    0.2430 N   0  0
    2.2650   -0.1505    0.0417 C   0  0
    1.6733    1.0847   -0.1520 C   0  0
    2.3680    2.3900   -0.4278 C   0  0
    3.8414    2.3653   -0.0633 C   0  0
    4.0817    2.3590    1.2752 O   0  0
    4.7577    2.2770   -0.8724 O   0  0
   -3.3469    1.8628   -0.1841 O   0  0
   -3.2585    3.2565   -0.4592 C   0  0
   -4.6668    3.8497   -0.4528 C   0  0
   -4.5995    5.3483   -0.7093 C   0  0
   -5.8950    5.9444   -0.5531 O   0  0
   -5.8339    7.2707   -0.1930 C   0  0
   -6.8748    7.7403    0.6033 C   0  0
   -6.8497    9.0524    1.0793 C   0  0
   -5.7739    9.8887    0.7727 C   0  0
   -4.7321    9.4284   -0.0293 C   0  0
   -4.7969    8.1381   -0.5581 C   0  0
   -3.6965   10.3060   -0.2246 O   0  0
   -2.4403    9.7050   -0.5661 C   0  0
   -1.2721   10.6101   -0.2306 C   0  0
    0.0171   10.0483   -0.2718 C   0  0
    1.1401   10.7986    0.0668 C   0  0
    0.9827   12.1269    0.4365 C   0  0
   -0.2818   12.7192    0.4500 C   0  0
   -1.4102   11.9620    0.1145 C   0  0
    1.5200   -2.4908    0.4767 C   0  0
    2.3640   13.0486    0.8795 Cl  0  0
   -3.3376   -0.5932    0.2736 H   0  0
   -1.3843   -2.1053    0.5000 H   0  0
   -0.7189    2.7587   -0.4169 H   0  0
    3.3094   -0.4400    0.0424 H   0  0
    2.2865    2.6277   -1.4949 H   0  0
    1.8906    3.2119    0.1175 H   0  0
    3.2533    2.4975    1.7810 H   0  0
   -2.6601    3.7517    0.3153 H   0  0
   -2.7979    3.4140   -1.4419 H   0  0
   -5.2977    3.3585   -1.2035 H   0  0
   -5.1565    3.6489    0.5082 H   0  0
   -3.8828    5.7767    0.0044 H   0  0
   -4.2461    5.5311   -1.7313 H   0  0
   -7.6970    7.0808    0.8699 H   0  0
   -7.6553    9.4175    1.7099 H   0  0
   -5.7445   10.8991    1.1730 H   0  0
   -4.0261    7.7950   -1.2381 H   0  0
   -2.2977    8.7737   -0.0018 H   0  0
   -2.4261    9.5026   -1.6438 H   0  0
    0.1521    9.0077   -0.5568 H   0  0
    2.1232   10.3355    0.0473 H   0  0
   -0.3962   13.7671    0.7252 H   0  0
   -2.3927   12.4343    0.1363 H   0  0
    2.5951   -2.6877    0.4844 H   0  0
    1.0460   -3.0591   -0.3277 H   0  0
    1.0900   -2.7571    1.4456 H   0  0
  1  2  2  0
  1 14  1  0
  2  3  1  0
  2 35  1  0
  3  6  2  0
  3 36  1  0
  4  1  1  0
  4 37  1  0
  5  4  2  0
  5  6  1  0
  6  7  1  0
  7  8  1  0
  7 33  1  0
  8  9  2  0
  8 38  1  0
  9  5  1  0
  9 10  1  0
 10 11  1  0
 10 39  1  0
 10 40  1  0
 11 12  1  0
 11 13  2  0
 12 41  1  0
 14 15  1  0
 15 16  1  0
 15 42  1  0
 15 43  1  0
 16 17  1  0
 16 44  1  0
 16 45  1  0
 17 18  1  0
 17 46  1  0
 17 47  1  0
 18 19  1  0
 19 20  2  0
 20 21  1  0
 20 48  1  0
 21 22  2  0
 21 49  1  0
 22 23  1  0
 22 50  1  0
 23 24  2  0
 23 25  1  0
 24 19  1  0
 24 51  1  0
 25 26  1  0
 26 27  1  0
 26 52  1  0
 26 53  1  0
 27 28  2  0
 28 29  1  0
 28 54  1  0
 29 30  2  0
 29 55  1  0
 30 31  1  0
 30 34  1  0
 31 32  2  0
 31 56  1  0
 32 27  1  0
 32 57  1  0
 33 58  1  0
 33 59  1  0
 33 60  1  0
M  END
> <Name>
CHEMBL3597432

> <Clean Energy>
22.4604

> <chembl_id>
CHEMBL3597432

> <chembl_pref_name>
None

> <efficacy>
1.096

> <Forcefield>
MMFF

> <ForcefieldBase>
MMFF

> <ForcefieldFFML>
<?xml version="1.0" encoding="UTF-8"?>
<!DOCTYPE ffml SYSTEM "Ffml.dtd">
<ffml version="1.0">
<forcefield name="MMFF" derivedFrom="MMFF" base="MMFF">
<atomTypes>
<atomType
name="C100"
element="C"
mass="12.011"
annotation=""/>
<atomType
name="N101"
element="N"
mass="14.007"
annotation=""/>
<atomType
name="O102"
element="O"
mass="16"
annotation=""/>
<atomType
name="Cl103"
element="Cl"
mass="35.453"
annotation=""/>
<atomType
name="H104"
element="H"
mass="1.008"
annotation=""/>
</atomTypes>
<parameters>
</parameters>
</forcefield>
</ffml>

> <Initial Potential Energy>
138.84155

> <Initial RMS Gradient>
28.74254

> <Minimization Criteria>
STEEPD> Minimization exiting with gradient tolerance ( 3.0000000) satisfied.

> <CHARMm Energy>
58.57889

> <Potential Energy>
58.57889

> <RMS Gradient>
0.06365

> <Bond Energy>
5.9149

> <Angle Energy>
19.20102

> <STRBend>
-0.17588

> <Dihedral Energy>
1.40856

> <OOPLane>
0.14362

> <Van der Waals Energy>
68.11211

> <Electrostatic Energy>
-36.02545

> <Hydrogen Bond Energy>
0

> <Solvation Free Energy>
0

> <HasGasteigerCharges>
true

> <REMARK99>
REMARK  99  MacroMolecule created from Mol2 file
REMARK  99  CHEMBL3597432
REMARK  99  PROTEIN
REMARK  99  GASTEIGER
REMARK  99
REMARK  99

$$$$
CHEMBL3597402
  SciTegic05292516403D

 73 77  0  0  0  0            999 V2000
   -1.3498    1.0296    0.5180 C   0  0
   -1.5300   -0.3260    0.2674 C   0  0
   -0.5278   -1.0816   -0.3363 C   0  0
   -0.1341    1.6544    0.2005 C   0  0
    0.8959    0.9147   -0.4222 C   0  0
    0.6745   -0.4424   -0.6759 C   0  0
    1.8187   -0.9323   -1.2667 N   0  0
    2.7275    0.0796   -1.4378 C   0  0
    2.2090    1.2400   -0.9001 C   0  0
    2.9072    2.5658   -0.8574 C   0  0
    4.1824    2.4874   -0.0383 C   0  0
    3.9611    2.3310    1.2925 O   0  0
    5.3145    2.5063   -0.5073 O   0  0
   -2.4362    1.6518    1.0761 O   0  0
   -2.4482    3.0711    0.9624 C   0  0
   -3.8684    3.5795    1.1526 C   0  0
   -3.8664    5.0935    1.0342 C   0  0
   -5.2062    5.5806    1.0211 O   0  0
   -5.3391    6.9034    0.6768 C   0  0
   -6.6267    7.2996    0.3187 C   0  0
   -6.8728    8.6170   -0.0668 C   0  0
   -5.8276    9.5409   -0.0976 C   0  0
   -4.5358    9.1604    0.2611 C   0  0
   -4.3034    7.8473    0.6717 C   0  0
   -3.5950   10.1528    0.1934 O   0  0
   -2.2215    9.7394    0.1991 C   0  0
   -1.3210   10.9363   -0.0311 C   0  0
   -0.0237   10.9309    0.5053 C   0  0
    0.8566   11.9907    0.2716 C   0  0
    0.4577   13.0771   -0.5070 C   0  0
   -0.8242   13.0739   -1.0684 C   0  0
   -1.7078   12.0168   -0.8321 C   0  0
    1.4030   14.2084   -0.7861 C   0  0
    2.0382   -2.3094   -1.6860 C   0  0
    2.8343   -3.0779   -0.6609 C   0  0
    4.1900   -3.3598   -0.8852 C   0  0
    4.9318   -4.0740    0.0571 C   0  0
    4.3303   -4.5130    1.2342 C   0  0
    2.9870   -4.2313    1.4740 C   0  0
    2.2424   -3.5159    0.5340 C   0  0
   -2.4742   -0.7996    0.5277 H   0  0
   -0.6941   -2.1348   -0.5368 H   0  0
    0.0339    2.7031    0.4097 H   0  0
    3.6871   -0.1159   -1.9025 H   0  0
    3.1716    2.8782   -1.8745 H   0  0
    2.2721    3.3553   -0.4426 H   0  0
    3.0052    2.3468    1.5071 H   0  0
   -1.7898    3.4979    1.7286 H   0  0
   -2.1057    3.3858   -0.0321 H   0  0
   -4.5364    3.1333    0.4056 H   0  0
   -4.2704    3.2666    2.1236 H   0  0
   -3.3287    5.5167    1.8918 H   0  0
   -3.3585    5.3765    0.1028 H   0  0
   -7.4473    6.5846    0.3348 H   0  0
   -7.8787    8.9206   -0.3460 H   0  0
   -6.0225   10.5654   -0.4042 H   0  0
   -3.3146    7.5659    1.0035 H   0  0
   -1.9838    9.3095    1.1793 H   0  0
   -2.0369    9.0080   -0.5971 H   0  0
    0.3174   10.0863    1.1022 H   0  0
    1.8591   11.9426    0.6918 H   0  0
   -1.1484   13.9081   -1.6898 H   0  0
   -2.7029   12.0512   -1.2749 H   0  0
    0.8614   15.1570   -0.8650 H   0  0
    1.9391   14.0258   -1.7224 H   0  0
    2.1331   14.3173    0.0229 H   0  0
    1.0728   -2.7920   -1.8691 H   0  0
    2.5584   -2.2769   -2.6512 H   0  0
    4.6824   -3.0227   -1.7950 H   0  0
    5.9821   -4.2869   -0.1262 H   0  0
    4.9114   -5.0714    1.9651 H   0  0
    2.5210   -4.5695    2.3960 H   0  0
    1.1979   -3.2976    0.7468 H   0  0
  1  2  2  0
  1 14  1  0
  2  3  1  0
  2 41  1  0
  3  6  2  0
  3 42  1  0
  4  1  1  0
  4 43  1  0
  5  4  2  0
  5  6  1  0
  6  7  1  0
  7  8  1  0
  7 34  1  0
  8  9  2  0
  8 44  1  0
  9  5  1  0
  9 10  1  0
 10 11  1  0
 10 45  1  0
 10 46  1  0
 11 12  1  0
 11 13  2  0
 12 47  1  0
 14 15  1  0
 15 16  1  0
 15 48  1  0
 15 49  1  0
 16 17  1  0
 16 50  1  0
 16 51  1  0
 17 18  1  0
 17 52  1  0
 17 53  1  0
 18 19  1  0
 19 20  2  0
 20 21  1  0
 20 54  1  0
 21 22  2  0
 21 55  1  0
 22 23  1  0
 22 56  1  0
 23 24  2  0
 23 25  1  0
 24 19  1  0
 24 57  1  0
 25 26  1  0
 26 27  1  0
 26 58  1  0
 26 59  1  0
 27 28  2  0
 28 29  1  0
 28 60  1  0
 29 30  2  0
 29 61  1  0
 30 31  1  0
 30 33  1  0
 31 32  2  0
 31 62  1  0
 32 27  1  0
 32 63  1  0
 33 64  1  0
 33 65  1  0
 33 66  1  0
 34 35  1  0
 34 67  1  0
 34 68  1  0
 35 36  2  0
 36 37  1  0
 36 69  1  0
 37 38  2  0
 37 70  1  0
 38 39  1  0
 38 71  1  0
 39 40  2  0
 39 72  1  0
 40 35  1  0
 40 73  1  0
M  END
> <Name>
CHEMBL3597402

> <Clean Energy>
28.3981

> <chembl_id>
CHEMBL3597402

> <chembl_pref_name>
None

> <efficacy>
1.094

> <Forcefield>
MMFF

> <ForcefieldBase>
MMFF

> <ForcefieldFFML>
<?xml version="1.0" encoding="UTF-8"?>
<!DOCTYPE ffml SYSTEM "Ffml.dtd">
<ffml version="1.0">
<forcefield name="MMFF" derivedFrom="MMFF" base="MMFF">
<atomTypes>
<atomType
name="C100"
element="C"
mass="12.011"
annotation=""/>
<atomType
name="N101"
element="N"
mass="14.007"
annotation=""/>
<atomType
name="O102"
element="O"
mass="16"
annotation=""/>
<atomType
name="H103"
element="H"
mass="1.008"
annotation=""/>
</atomTypes>
<parameters>
</parameters>
</forcefield>
</ffml>

> <Initial Potential Energy>
240.28019

> <Initial RMS Gradient>
33.57183

> <Minimization Criteria>
STEEPD> Minimization exiting with gradient tolerance ( 3.0000000) satisfied.

> <CHARMm Energy>
87.82275

> <Potential Energy>
87.82275

> <RMS Gradient>
0.05065

> <Bond Energy>
7.14808

> <Angle Energy>
19.75267

> <STRBend>
-0.21977

> <Dihedral Energy>
-0.1025

> <OOPLane>
0.11387

> <Van der Waals Energy>
83.62326

> <Electrostatic Energy>
-22.49286

> <Hydrogen Bond Energy>
0

> <Solvation Free Energy>
0

> <HasGasteigerCharges>
true

> <REMARK99>
REMARK  99  MacroMolecule created from Mol2 file
REMARK  99  CHEMBL3597402
REMARK  99  PROTEIN
REMARK  99  GASTEIGER
REMARK  99
REMARK  99

$$$$
CHEMBL220597
  SciTegic05292516403D

 53 55  0  0  0  0            999 V2000
    1.7360  -13.7117    1.6451 C   0  0
    1.4471  -15.0613    1.5047 C   0  0
    2.4150  -16.0033    1.4513 N   0  0
    4.0893  -14.2661    1.6258 C   0  0
    3.0730  -13.3114    1.6995 C   0  0
    0.1865  -15.5842    1.4448 O   0  0
   -0.8442  -14.7403    0.9258 C   0  0
   -2.0018  -15.6409    0.4938 C   0  0
   -3.1670  -14.9144   -0.0801 C   0  0
   -3.2467  -14.1120   -1.1987 C   0  0
   -4.5474  -13.7226   -1.3462 O   0  0
   -5.2175  -14.3328   -0.3126 C   0  0
   -4.4248  -15.0403    0.4754 N   0  0
   -6.6615  -14.1182   -0.2422 C   0  0
   -7.3290  -13.2814   -1.1516 C   0  0
   -8.7109  -13.0936   -1.0700 C   0  0
   -9.4424  -13.7411   -0.0772 C   0  0
   -8.8008  -14.5766    0.8325 C   0  0
   -7.4173  -14.7621    0.7503 C   0  0
   -2.2875  -13.6295   -2.2075 C   0  0
    5.5455  -13.8690    1.6562 C   0  0
    5.9869  -13.1985    0.3463 C   0  0  1  0  0  0
    6.7337  -11.8982    0.6418 C   0  0
    7.8932  -11.8116   -0.0598 O   0  0
    6.3767  -11.0103    1.4001 O   0  0
    6.9247  -14.0315   -0.3936 O   0  0
    6.2449  -15.0052   -1.1955 C   0  0
    3.7004  -15.5944    1.5226 C   0  0
    7.2853  -15.7599   -1.9998 C   0  0
    0.9574  -12.9645    1.7316 H   0  0
    3.3111  -12.2550    1.8127 H   0  0
   -1.1770  -14.0464    1.7068 H   0  0
   -0.4777  -14.1676    0.0651 H   0  0
   -1.6377  -16.3701   -0.2416 H   0  0
   -2.3284  -16.2390    1.3543 H   0  0
   -6.7714  -12.7692   -1.9329 H   0  0
   -9.2162  -12.4448   -1.7812 H   0  0
  -10.5170  -13.5968   -0.0133 H   0  0
   -9.3740  -15.0846    1.6042 H   0  0
   -6.9274  -15.4195    1.4667 H   0  0
   -2.7859  -13.4320   -3.1616 H   0  0
   -1.5032  -14.3714   -2.3860 H   0  0
   -1.8148  -12.7027   -1.8690 H   0  0
    5.6825  -13.2090    2.5220 H   0  0
    6.1617  -14.7548    1.8563 H   0  0
    5.1549  -12.9208   -0.3130 H   0  0
    8.0522  -12.6675   -0.5236 H   0  0
    5.7024  -15.7045   -0.5553 H   0  0
    5.5431  -14.5079   -1.8735 H   0  0
    4.4305  -16.3997    1.4882 H   0  0
    6.8151  -16.5185   -2.6317 H   0  0
    8.0053  -16.2494   -1.3357 H   0  0
    7.8539  -15.0728   -2.6352 H   0  0
  1  2  2  0
  1 30  1  0
  2  3  1  0
  2  6  1  0
  3 28  2  0
  4  5  2  0
  4 21  1  0
  5  1  1  0
  5 31  1  0
  6  7  1  0
  7  8  1  0
  7 32  1  0
  7 33  1  0
  8  9  1  0
  8 34  1  0
  8 35  1  0
  9 10  2  0
 10 11  1  0
 10 20  1  0
 11 12  1  0
 12 13  2  0
 12 14  1  0
 13  9  1  0
 14 15  2  0
 15 16  1  0
 15 36  1  0
 16 17  2  0
 16 37  1  0
 17 18  1  0
 17 38  1  0
 18 19  2  0
 18 39  1  0
 19 14  1  0
 19 40  1  0
 20 41  1  0
 20 42  1  0
 20 43  1  0
 21 22  1  0
 21 44  1  0
 21 45  1  0
 22 23  1  0
 22 26  1  0
 22 46  1  0
 23 24  1  0
 23 25  2  0
 24 47  1  0
 26 27  1  0
 27 29  1  0
 27 48  1  0
 27 49  1  0
 28  4  1  0
 28 50  1  0
 29 51  1  0
 29 52  1  0
 29 53  1  0
M  END
> <Name>
CHEMBL220597

> <Clean Energy>
31.907801

> <chembl_id>
CHEMBL220597

> <chembl_pref_name>
None

> <efficacy>
1.141304348

> <Forcefield>
MMFF

> <ForcefieldBase>
MMFF

> <ForcefieldFFML>
<?xml version="1.0" encoding="UTF-8"?>
<!DOCTYPE ffml SYSTEM "Ffml.dtd">
<ffml version="1.0">
<forcefield name="MMFF" derivedFrom="MMFF" base="MMFF">
<atomTypes>
<atomType
name="C100"
element="C"
mass="12.011"
annotation=""/>
<atomType
name="N101"
element="N"
mass="14.007"
annotation=""/>
<atomType
name="O102"
element="O"
mass="16"
annotation=""/>
<atomType
name="H103"
element="H"
mass="1.008"
annotation=""/>
</atomTypes>
<parameters>
</parameters>
</forcefield>
</ffml>

> <Initial Potential Energy>
137.06687

> <Initial RMS Gradient>
26.93014

> <Minimization Criteria>
CONJUG> Minimization exiting with gradient tolerance ( 0.0100000) satisfied.

> <CHARMm Energy>
59.09537

> <Potential Energy>
59.09537

> <RMS Gradient>
0.00993

> <Bond Energy>
4.43767

> <Angle Energy>
10.79392

> <STRBend>
0.89751

> <Dihedral Energy>
0.37973

> <OOPLane>
0.02854

> <Van der Waals Energy>
47.25291

> <Electrostatic Energy>
-4.69492

> <Hydrogen Bond Energy>
0

> <Solvation Free Energy>
0

> <HasGasteigerCharges>
true

> <REMARK99>
REMARK  99  MacroMolecule created from Mol2 file
REMARK  99  CHEMBL220597
REMARK  99  PROTEIN
REMARK  99  GASTEIGER
REMARK  99
REMARK  99

$$$$
CHEMBL518038
  SciTegic05292516403D

 53 54  0  0  0  0            999 V2000
    5.4614    2.3425    0.1248 C   0  0
    5.5913    1.2127   -0.6418 C   0  0
    6.8794    0.8107   -0.8854 C   0  0
    7.9811    1.4331   -0.4471 N   0  0
    7.7562    2.5284    0.2735 C   0  0
    6.5402    3.0072    0.5771 N   0  0
    9.1323    3.4544    0.9108 S   0  0
   10.5421    2.6895   -0.0109 C   0  0  1  0  0  0
   11.6963    3.6879   -0.1007 C   0  0
   11.7372    4.6271    0.8757 O   0  0
   12.5771    3.6275   -0.9504 O   0  0
    4.2368    2.9204    0.4463 N   0  0
    7.1964   -0.5878   -1.8292 Cl  0  0
    2.8931    2.5178    0.3431 C   0  0
    1.8957    3.4828    0.0368 C   0  0
    0.5404    3.0907   -0.0379 C   0  0
    0.2070    1.7405    0.1352 C   0  0
    1.1809    0.7876    0.4069 C   0  0
    2.5135    1.1768    0.5121 C   0  0
    2.2911    4.9265   -0.1730 C   0  0
   -0.5711    4.0686   -0.3220 C   0  0
   11.0080    1.4156    0.7105 C   0  0
   11.8708    0.5215   -0.1894 C   0  0
   12.2652   -0.7709    0.5290 C   0  0
   13.1347   -1.6597   -0.3617 C   0  0
   13.5328   -2.9477    0.3586 C   0  0
   14.4036   -3.8310   -0.5203 C   0  0
    4.7473    0.6848   -1.0590 H   0  0
   10.2178    2.4941   -1.0387 H   0  0
   10.9310    4.5834    1.4342 H   0  0
    4.3794    3.8040    0.9234 H   0  0
   -0.8319    1.4206    0.0678 H   0  0
    0.8847   -0.2503    0.5524 H   0  0
    3.2501    0.4233    0.7754 H   0  0
    1.5500    5.4793   -0.7570 H   0  0
    3.2266    5.0018   -0.7373 H   0  0
    2.4122    5.4224    0.7950 H   0  0
   -1.5562    3.6108   -0.1808 H   0  0
   -0.5095    4.4191   -1.3570 H   0  0
   -0.5141    4.9220    0.3614 H   0  0
   11.5821    1.6774    1.6092 H   0  0
   10.1489    0.8218    1.0454 H   0  0
   11.3159    0.2768   -1.1034 H   0  0
   12.7782    1.0551   -0.4924 H   0  0
   12.8104   -0.5276    1.4491 H   0  0
   11.3616   -1.3186    0.8235 H   0  0
   12.5885   -1.9060   -1.2805 H   0  0
   14.0368   -1.1114   -0.6593 H   0  0
   14.0783   -2.7067    1.2785 H   0  0
   12.6344   -3.5040    0.6505 H   0  0
   14.6741   -4.7475    0.0133 H   0  0
   15.3278   -3.3157   -0.8007 H   0  0
   13.8763   -4.1144   -1.4368 H   0  0
  1  2  2  0
  1 12  1  0
  2  3  1  0
  2 28  1  0
  3  4  2  0
  3 13  1  0
  4  5  1  0
  5  6  2  0
  5  7  1  0
  6  1  1  0
  7  8  1  0
  8  9  1  0
  8 22  1  0
  8 29  1  0
  9 10  1  0
  9 11  2  0
 10 30  1  0
 12 14  1  0
 12 31  1  0
 14 15  2  0
 15 16  1  0
 15 20  1  0
 16 17  2  0
 16 21  1  0
 17 18  1  0
 17 32  1  0
 18 19  2  0
 18 33  1  0
 19 14  1  0
 19 34  1  0
 20 35  1  0
 20 36  1  0
 20 37  1  0
 21 38  1  0
 21 39  1  0
 21 40  1  0
 22 23  1  0
 22 41  1  0
 22 42  1  0
 23 24  1  0
 23 43  1  0
 23 44  1  0
 24 25  1  0
 24 45  1  0
 24 46  1  0
 25 26  1  0
 25 47  1  0
 25 48  1  0
 26 27  1  0
 26 49  1  0
 26 50  1  0
 27 51  1  0
 27 52  1  0
 27 53  1  0
M  END
> <Name>
CHEMBL518038

> <Clean Energy>
8.39639

> <chembl_id>
CHEMBL518038

> <chembl_pref_name>
None

> <efficacy>
1.320037987

> <Forcefield>
MMFF

> <ForcefieldBase>
MMFF

> <ForcefieldFFML>
<?xml version="1.0" encoding="UTF-8"?>
<!DOCTYPE ffml SYSTEM "Ffml.dtd">
<ffml version="1.0">
<forcefield name="MMFF" derivedFrom="MMFF" base="MMFF">
<atomTypes>
<atomType
name="C100"
element="C"
mass="12.011"
annotation=""/>
<atomType
name="N101"
element="N"
mass="14.007"
annotation=""/>
<atomType
name="S102"
element="S"
mass="32.066"
annotation=""/>
<atomType
name="O103"
element="O"
mass="16"
annotation=""/>
<atomType
name="Cl104"
element="Cl"
mass="35.453"
annotation=""/>
<atomType
name="H105"
element="H"
mass="1.008"
annotation=""/>
</atomTypes>
<parameters>
</parameters>
</forcefield>
</ffml>

> <Initial Potential Energy>
24.39682

> <Initial RMS Gradient>
33.2731

> <Minimization Criteria>
STEEPD> Minimization exiting with gradient tolerance ( 3.0000000) satisfied.

> <CHARMm Energy>
-85.17175

> <Potential Energy>
-85.17175

> <RMS Gradient>
0.02896

> <Bond Energy>
4.55041

> <Angle Energy>
12.66532

> <STRBend>
0.27241

> <Dihedral Energy>
-1.39916

> <OOPLane>
0.15196

> <Van der Waals Energy>
48.85176

> <Electrostatic Energy>
-150.26445

> <Hydrogen Bond Energy>
0

> <Solvation Free Energy>
0

> <HasGasteigerCharges>
true

> <REMARK99>
REMARK  99  MacroMolecule created from Mol2 file
REMARK  99  CHEMBL518038
REMARK  99  PROTEIN
REMARK  99  GASTEIGER
REMARK  99
REMARK  99

$$$$
CHEMBL3393182
  SciTegic05292516403D

 50 52  0  0  0  0            999 V2000
    2.7370   -2.5262    0.3104 C   0  0
    2.4470   -1.0498    0.4556 C   0  0
    3.3065   -3.0255   -0.6500 O   0  0
    2.3140   -3.2840    1.3531 O   0  0
    1.0587   -0.5826    0.0752 C   0  0
    0.7231    0.7730    0.2862 C   0  0
   -0.5191    1.3050   -0.1087 C   0  0
   -1.4464    0.4549   -0.7036 C   0  0
   -1.1310   -0.8939   -0.9131 C   0  0
    0.1139   -1.4089   -0.5380 C   0  0
   -1.8117    3.4689   -0.2861 C   0  0
   -1.5834    4.9624   -0.2625 C   0  0
   -2.6487    5.8815   -0.0761 C   0  0
   -2.3404    7.2467    0.0011 C   0  0
   -1.0290    7.7104   -0.1484 C   0  0
    0.0026    6.8178   -0.3965 C   0  0
   -0.2741    5.4526   -0.4616 C   0  0
   -2.9266    3.0440   -0.5745 O   0  0
   -0.7126    2.6951    0.0688 N   0  0
   -5.1584    6.1511    0.1939 C   0  0
   -6.4154    5.3421    0.3178 C   0  0
   -7.6387    5.9968    0.1045 C   0  0
   -8.8489    5.3074    0.2269 C   0  0
   -8.8518    3.9511    0.5600 C   0  0
   -7.6352    3.2990    0.7990 C   0  0
   -6.4191    3.9842    0.6776 C   0  0
   -5.2353    7.3719    0.2590 O   0  0
   -3.9915    5.4173    0.0121 N   0  0
  -10.4160    3.1063    0.7126 S   0  0
  -10.1337    1.7256   -0.4283 C   0  0
    2.6633   -0.7645    1.4927 H   0  0
    3.1776   -0.5190   -0.1684 H   0  0
    1.8213   -2.7669    2.0203 H   0  0
    1.4691    1.4265    0.7365 H   0  0
   -2.4151    0.8140   -1.0371 H   0  0
   -1.8542   -1.5481   -1.3972 H   0  0
    0.3282   -2.4540   -0.7582 H   0  0
   -3.1097    7.9981    0.1621 H   0  0
   -0.8359    8.7810   -0.0932 H   0  0
    1.0218    7.1676   -0.5448 H   0  0
    0.5509    4.7872   -0.7020 H   0  0
    0.0604    3.1786    0.5048 H   0  0
   -7.6521    7.0533   -0.1564 H   0  0
   -9.7853    5.8375    0.0601 H   0  0
   -7.6324    2.2566    1.1052 H   0  0
   -5.5030    3.4390    0.8972 H   0  0
   -4.0638    4.4080   -0.1380 H   0  0
  -11.0661    1.1670   -0.5472 H   0  0
   -9.3742    1.0437   -0.0374 H   0  0
   -9.8236    2.0946   -1.4098 H   0  0
  1  2  1  0
  1  3  2  0
  1  4  1  0
  2  5  1  0
  2 31  1  0
  2 32  1  0
  4 33  1  0
  5  6  1  0
  5 10  2  0
  6  7  2  0
  6 34  1  0
  7  8  1  0
  7 19  1  0
  8  9  2  0
  8 35  1  0
  9 10  1  0
  9 36  1  0
 10 37  1  0
 11 12  1  0
 11 18  2  0
 11 19  1  0
 12 13  1  0
 12 17  2  0
 13 14  2  0
 13 28  1  0
 14 15  1  0
 14 38  1  0
 15 16  2  0
 15 39  1  0
 16 17  1  0
 16 40  1  0
 17 41  1  0
 19 42  1  0
 20 21  1  0
 20 27  2  0
 20 28  1  0
 21 22  1  0
 21 26  2  0
 22 23  2  0
 22 43  1  0
 23 24  1  0
 23 44  1  0
 24 25  2  0
 24 29  1  0
 25 26  1  0
 25 45  1  0
 26 46  1  0
 28 47  1  0
 29 30  1  0
 30 48  1  0
 30 49  1  0
 30 50  1  0
M  END
> <Name>
CHEMBL3393182

> <Clean Energy>
3.54741

> <chembl_id>
CHEMBL3393182

> <chembl_pref_name>
None

> <efficacy>
1.899335233

> <Forcefield>
MMFF

> <ForcefieldBase>
MMFF

> <ForcefieldFFML>
<?xml version="1.0" encoding="UTF-8"?>
<!DOCTYPE ffml SYSTEM "Ffml.dtd">
<ffml version="1.0">
<forcefield name="MMFF" derivedFrom="MMFF" base="MMFF">
<atomTypes>
<atomType
name="C100"
element="C"
mass="12.011"
annotation=""/>
<atomType
name="O101"
element="O"
mass="16"
annotation=""/>
<atomType
name="N102"
element="N"
mass="14.007"
annotation=""/>
<atomType
name="S103"
element="S"
mass="32.066"
annotation=""/>
<atomType
name="H104"
element="H"
mass="1.008"
annotation=""/>
</atomTypes>
<parameters>
</parameters>
</forcefield>
</ffml>

> <Initial Potential Energy>
151.70628

> <Initial RMS Gradient>
32.30579

> <Minimization Criteria>
STEEPD> Minimization exiting with gradient tolerance ( 3.0000000) satisfied.

> <CHARMm Energy>
57.83933

> <Potential Energy>
57.83933

> <RMS Gradient>
0.01728

> <Bond Energy>
8.36786

> <Angle Energy>
13.14458

> <STRBend>
1.98993

> <Dihedral Energy>
7.53643

> <OOPLane>
0.10267

> <Van der Waals Energy>
66.63647

> <Electrostatic Energy>
-39.93861

> <Hydrogen Bond Energy>
0

> <Solvation Free Energy>
0

> <HasGasteigerCharges>
true

> <REMARK99>
REMARK  99  MacroMolecule created from Mol2 file
REMARK  99  CHEMBL3393182
REMARK  99  PROTEIN
REMARK  99  GASTEIGER
REMARK  99
REMARK  99

$$$$
CHEMBL4470753
  SciTegic05292516403D

 50 52  0  0  0  0            999 V2000
   12.7965  -19.9209    0.7358 C   0  0
   12.4921  -19.5884   -0.7377 C   0  0
   13.4639  -20.3625   -1.6434 C   0  0
    8.3690  -21.3925    1.5391 C   0  0
    9.1146  -22.2678    0.7387 C   0  0
   10.0427  -21.7830   -0.1960 C   0  0
   10.2578  -20.3970   -0.2929 C   0  0
    9.4790  -19.5003    0.4547 C   0  0
    8.5710  -20.0115    1.3940 C   0  0
    9.5700  -18.0120    0.2758 C   0  0
   10.8040  -22.7651   -1.0405 C   0  0
   11.1664  -19.9390   -1.2072 O   0  0
   12.7238  -18.0837   -1.0269 C   0  0
   13.9088  -17.5870   -0.5896 O   0  0
   11.9473  -17.3579   -1.6340 O   0  0
    7.3618  -21.9328    2.5297 C   0  0
    6.0223  -21.4387    2.0996 C   0  0
    5.2711  -20.7222    2.9458 N   0  0
    4.1217  -20.4013    2.2488 O   0  0
    4.1757  -20.9255    0.9902 C   0  0
    5.3592  -21.6143    0.8587 C   0  0
    3.0422  -20.6424    0.1162 C   0  0
    1.8916  -19.9996    0.6005 C   0  0
    0.8099  -19.7250   -0.2435 C   0  0
    0.8722  -20.0895   -1.5848 C   0  0
    2.0006  -20.7305   -2.0884 C   0  0
    3.0787  -21.0048   -1.2405 C   0  0
   -0.5894  -19.7201   -2.7257 Br  0  0
   12.5774  -20.9680    0.9694 H   0  0
   12.2077  -19.2976    1.4168 H   0  0
   13.8493  -19.7565    0.9870 H   0  0
   13.2667  -20.1467   -2.7003 H   0  0
   13.3469  -21.4430   -1.5164 H   0  0
   14.5101  -20.1113   -1.4395 H   0  0
    8.9614  -23.3418    0.8303 H   0  0
    7.9825  -19.3205    1.9988 H   0  0
    8.7233  -17.5014    0.7477 H   0  0
    9.5373  -17.7527   -0.7865 H   0  0
   10.4855  -17.6268    0.7317 H   0  0
   11.7629  -22.9999   -0.5692 H   0  0
   10.9789  -22.3713   -2.0467 H   0  0
   10.2412  -23.6972   -1.1617 H   0  0
   14.5234  -18.2138   -0.1677 H   0  0
    7.3640  -23.0287    2.5439 H   0  0
    7.6227  -21.5900    3.5377 H   0  0
    5.7187  -22.1413   -0.0117 H   0  0
    1.8129  -19.7046    1.6461 H   0  0
   -0.0650  -19.2232    0.1584 H   0  0
    2.0434  -21.0213   -3.1352 H   0  0
    3.9542  -21.4959   -1.6600 H   0  0
  1 29  1  0
  1 30  1  0
  1 31  1  0
  2  1  1  0
  2 13  1  0
  3  2  1  0
  3 32  1  0
  3 33  1  0
  3 34  1  0
  4  5  2  0
  4 16  1  0
  5  6  1  0
  5 35  1  0
  6  7  2  0
  6 11  1  0
  7  8  1  0
  7 12  1  0
  8  9  2  0
  8 10  1  0
  9  4  1  0
  9 36  1  0
 10 37  1  0
 10 38  1  0
 10 39  1  0
 11 40  1  0
 11 41  1  0
 11 42  1  0
 12  2  1  0
 13 14  1  0
 13 15  2  0
 14 43  1  0
 16 17  1  0
 16 44  1  0
 16 45  1  0
 17 18  2  0
 18 19  1  0
 19 20  1  0
 20 21  2  0
 20 22  1  0
 21 17  1  0
 21 46  1  0
 22 23  2  0
 23 24  1  0
 23 47  1  0
 24 25  2  0
 24 48  1  0
 25 26  1  0
 25 28  1  0
 26 27  2  0
 26 49  1  0
 27 22  1  0
 27 50  1  0
M  END
> <Name>
CHEMBL4470753

> <Clean Energy>
55.6922

> <chembl_id>
CHEMBL4470753

> <chembl_pref_name>
None

> <efficacy>
1.18

> <Forcefield>
MMFF

> <ForcefieldBase>
MMFF

> <ForcefieldFFML>
<?xml version="1.0" encoding="UTF-8"?>
<!DOCTYPE ffml SYSTEM "Ffml.dtd">
<ffml version="1.0">
<forcefield name="MMFF" derivedFrom="MMFF" base="MMFF">
<atomTypes>
<atomType
name="C100"
element="C"
mass="12.011"
annotation=""/>
<atomType
name="O101"
element="O"
mass="16"
annotation=""/>
<atomType
name="N102"
element="N"
mass="14.007"
annotation=""/>
<atomType
name="Br103"
element="Br"
mass="79.904"
annotation=""/>
<atomType
name="H104"
element="H"
mass="1.008"
annotation=""/>
</atomTypes>
<parameters>
</parameters>
</forcefield>
</ffml>

> <Initial Potential Energy>
199.02681

> <Initial RMS Gradient>
28.93676

> <Minimization Criteria>
STEEPD> Minimization exiting with gradient tolerance ( 3.0000000) satisfied.

> <CHARMm Energy>
95.82541

> <Potential Energy>
95.82541

> <RMS Gradient>
0.07578

> <Bond Energy>
6.09106

> <Angle Energy>
12.04451

> <STRBend>
1.24312

> <Dihedral Energy>
8.96994

> <OOPLane>
0.10583

> <Van der Waals Energy>
50.49798

> <Electrostatic Energy>
16.87296

> <Hydrogen Bond Energy>
0

> <Solvation Free Energy>
0

> <HasGasteigerCharges>
true

> <REMARK99>
REMARK  99  MacroMolecule created from Mol2 file
REMARK  99  CHEMBL4470753
REMARK  99  PROTEIN
REMARK  99  GASTEIGER
REMARK  99
REMARK  99

$$$$
CHEMBL3597412
  SciTegic05292516403D

 70 74  0  0  0  0            999 V2000
    1.9963    2.3845   -1.1909 C   0  0
   -4.3865   -3.7080    0.7863 C   0  0
   -3.0467   -1.6935    0.6852 O   0  0
   -4.2992   -5.2312    0.7842 C   0  0
    2.4801   -0.1125   -0.8236 C   0  0
   -2.9845   -3.1179    0.6939 C   0  0
   -5.6090   -5.7891    0.6917 O   0  0
    2.1675    2.9430    1.1675 O   0  0
    2.6292    3.2015   -0.0790 C   0  0
   -2.0137    0.3293    0.1475 C   0  0
    3.4455    4.0907   -0.2861 O   0  0
   -1.8828   -1.0426    0.3556 C   0  0
    1.7827   -1.2241   -0.4247 N   0  0
    0.4667   -0.8720   -0.1746 C   0  0
    0.3464    0.4988   -0.4123 C   0  0
    1.6324    0.9786   -0.8134 C   0  0
   -0.9140    1.1077   -0.2352 C   0  0
   -0.6333   -1.6588    0.2165 C   0  0
   -5.6445   -7.1158    0.3320 C   0  0
   -6.8516   -7.5629   -0.2031 C   0  0
   -6.9728   -8.8828   -0.6399 C   0  0
   -5.8894   -9.7589   -0.5429 C   0  0
   -4.6814   -9.3287    0.0026 C   0  0
   -4.5778   -8.0157    0.4694 C   0  0
   -3.6824  -10.2685    0.0352 O   0  0
   -2.3589   -9.7743    0.2811 C   0  0
   -1.3042  -10.8424    0.0551 C   0  0
    0.0386  -10.4414   -0.0687 C   0  0
    1.0565  -11.3779   -0.2539 C   0  0
    0.7393  -12.7302   -0.3109 C   0  0
   -0.5837  -13.1524   -0.1771 C   0  0
   -1.6031  -12.2121    0.0112 C   0  0
    2.2882   -2.6007   -0.3806 C   0  0
    3.7689   -2.7203   -0.1100 C   0  0
    4.6362   -3.1747   -1.1171 C   0  0
    5.9967   -3.3308   -0.8597 C   0  0
    6.4975   -3.0469    0.4084 C   0  0
    5.6519   -2.5860    1.4149 C   0  0
    4.2924   -2.4198    1.1577 C   0  0
    1.9908  -13.8855   -0.5479 Cl  0  0
    1.1128    2.9292   -1.5411 H   0  0
    2.7111    2.3485   -2.0223 H   0  0
   -5.0009   -3.3572   -0.0520 H   0  0
   -4.8998   -3.3528    1.6879 H   0  0
   -3.6922   -5.5447   -0.0755 H   0  0
   -3.8227   -5.5663    1.7134 H   0  0
    3.5279   -0.1759   -1.0925 H   0  0
   -2.5245   -3.4812   -0.2342 H   0  0
   -2.3912   -3.4496    1.5549 H   0  0
    1.5158    2.2142    1.2071 H   0  0
   -2.9901    0.7969    0.2632 H   0  0
   -1.0513    2.1713   -0.4137 H   0  0
   -0.4980   -2.7185    0.3899 H   0  0
   -7.7010   -6.8877   -0.2896 H   0  0
   -7.9105   -9.2295   -1.0647 H   0  0
   -5.9921  -10.7821   -0.8966 H   0  0
   -3.6649   -7.6957    0.9508 H   0  0
   -2.1466   -8.9399   -0.3999 H   0  0
   -2.2813   -9.4477    1.3252 H   0  0
    0.3020   -9.3872   -0.0247 H   0  0
    2.0849  -11.0403   -0.3527 H   0  0
   -0.8273  -14.2124   -0.2170 H   0  0
   -2.6307  -12.5556    0.1208 H   0  0
    1.7486   -3.1365    0.4081 H   0  0
    2.0186   -3.0527   -1.3425 H   0  0
    4.2455   -3.4355   -2.0992 H   0  0
    6.6752   -3.6713   -1.6405 H   0  0
    7.5581   -3.1746    0.6109 H   0  0
    6.0629   -2.3497    2.3945 H   0  0
    3.6369   -2.0688    1.9524 H   0  0
  1  9  1  0
  1 41  1  0
  1 42  1  0
  2  4  1  0
  2 43  1  0
  2 44  1  0
  3  6  1  0
  4  7  1  0
  4 45  1  0
  4 46  1  0
  5 16  2  0
  5 47  1  0
  6  2  1  0
  6 48  1  0
  6 49  1  0
  7 19  1  0
  8 50  1  0
  9  8  1  0
  9 11  2  0
 10 12  2  0
 10 51  1  0
 12  3  1  0
 12 18  1  0
 13  5  1  0
 13 33  1  0
 14 13  1  0
 15 14  1  0
 15 17  2  0
 16  1  1  0
 16 15  1  0
 17 10  1  0
 17 52  1  0
 18 14  2  0
 18 53  1  0
 19 20  2  0
 20 21  1  0
 20 54  1  0
 21 22  2  0
 21 55  1  0
 22 23  1  0
 22 56  1  0
 23 24  2  0
 23 25  1  0
 24 19  1  0
 24 57  1  0
 25 26  1  0
 26 27  1  0
 26 58  1  0
 26 59  1  0
 27 28  2  0
 28 29  1  0
 28 60  1  0
 29 30  2  0
 29 61  1  0
 30 31  1  0
 30 40  1  0
 31 32  2  0
 31 62  1  0
 32 27  1  0
 32 63  1  0
 33 34  1  0
 33 64  1  0
 33 65  1  0
 34 35  2  0
 35 36  1  0
 35 66  1  0
 36 37  2  0
 36 67  1  0
 37 38  1  0
 37 68  1  0
 38 39  2  0
 38 69  1  0
 39 34  1  0
 39 70  1  0
M  END
> <Name>
CHEMBL3597412

> <Clean Energy>
28.0312

> <chembl_id>
CHEMBL3597412

> <chembl_pref_name>
None

> <efficacy>
1.225

> <Forcefield>
MMFF

> <ForcefieldBase>
MMFF

> <ForcefieldFFML>
<?xml version="1.0" encoding="UTF-8"?>
<!DOCTYPE ffml SYSTEM "Ffml.dtd">
<ffml version="1.0">
<forcefield name="MMFF" derivedFrom="MMFF" base="MMFF">
<atomTypes>
<atomType
name="C100"
element="C"
mass="12.011"
annotation=""/>
<atomType
name="O101"
element="O"
mass="16"
annotation=""/>
<atomType
name="N102"
element="N"
mass="14.007"
annotation=""/>
<atomType
name="Cl103"
element="Cl"
mass="35.453"
annotation=""/>
<atomType
name="H104"
element="H"
mass="1.008"
annotation=""/>
</atomTypes>
<parameters>
</parameters>
</forcefield>
</ffml>

> <Initial Potential Energy>
235.51555

> <Initial RMS Gradient>
33.56829

> <Minimization Criteria>
CONJUG> Minimization exiting with gradient tolerance ( 0.0100000) satisfied.

> <CHARMm Energy>
97.45046

> <Potential Energy>
97.45046

> <RMS Gradient>
0.00988

> <Bond Energy>
7.68878

> <Angle Energy>
21.48954

> <STRBend>
0.12547

> <Dihedral Energy>
-1.66408

> <OOPLane>
0.16919

> <Van der Waals Energy>
84.48375

> <Electrostatic Energy>
-14.8422

> <Hydrogen Bond Energy>
0

> <Solvation Free Energy>
0

> <HasGasteigerCharges>
true

> <REMARK99>
REMARK  99  MacroMolecule created from Mol2 file
REMARK  99  CHEMBL3597412
REMARK  99  PROTEIN
REMARK  99  GASTEIGER
REMARK  99
REMARK  99

$$$$
CHEMBL3597414
  SciTegic05292516403D

 57 60  0  0  0  0            999 V2000
   -2.0413    0.9556   -0.9042 C   0  0
   -2.3452   -0.3587   -1.2587 C   0  0
   -1.4151   -1.3885   -1.1140 C   0  0
   -0.7766    1.2728   -0.3890 C   0  0
    0.1868    0.2480   -0.2276 C   0  0
   -0.1612   -1.0516   -0.5985 C   0  0
    0.9305   -1.8516   -0.3657 N   0  0
    1.9600   -1.1086    0.1391 C   0  0
    1.5383    0.2035    0.2564 C   0  0
    2.3607    1.3430    0.7768 C   0  0
    2.9182    1.0596    2.1574 C   0  0
    1.9661    0.8560    3.1020 O   0  0
    4.1137    1.0070    2.4207 O   0  0
   -3.0691    1.8356   -1.1130 O   0  0
   -2.8619    3.1909   -0.7270 C   0  0
   -4.1746    3.9384   -0.9255 C   0  0
   -4.0381    5.3972   -0.5182 C   0  0
   -5.3259    6.0158   -0.5916 O   0  0
   -5.4397    7.1728    0.1348 C   0  0
   -6.7214    7.4619    0.6008 C   0  0
   -6.9447    8.5944    1.3824 C   0  0
   -5.8884    9.4542    1.6814 C   0  0
   -4.6104    9.1925    1.1868 C   0  0
   -4.3863    8.0481    0.4144 C   0  0
   -3.6290   10.0876    1.5622 O   0  0
   -2.5045   10.1634    0.7795 C   0  0
   -2.5505   10.7414   -0.4891 C   0  0
   -1.3906   10.8047   -1.2648 C   0  0
   -0.1801   10.3092   -0.7650 C   0  0
   -0.1462    9.7558    0.5233 C   0  0
   -1.3026    9.6967    1.3011 C   0  0
    1.0530   10.2746   -1.6191 C   0  0
   -3.3317   -0.5811   -1.6602 H   0  0
   -1.6629   -2.4061   -1.3979 H   0  0
   -0.5102    2.2873   -0.1214 H   0  0
    0.9592   -2.8440   -0.5522 H   0  0
    2.9064   -1.5774    0.3789 H   0  0
    3.2019    1.5212    0.0965 H   0  0
    1.7864    2.2740    0.8270 H   0  0
    1.0566    0.9308    2.7442 H   0  0
   -2.5745    3.2435    0.3303 H   0  0
   -2.0789    3.6403   -1.3495 H   0  0
   -4.5039    3.8646   -1.9696 H   0  0
   -4.9715    3.4560   -0.3449 H   0  0
   -3.6448    5.4431    0.5059 H   0  0
   -3.3484    5.9072   -1.2011 H   0  0
   -7.5439    6.7890    0.3721 H   0  0
   -7.9416    8.8053    1.7595 H   0  0
   -6.0650   10.3355    2.2933 H   0  0
   -3.3889    7.8412    0.0433 H   0  0
   -3.4855   11.1402   -0.8765 H   0  0
   -1.4427   11.2441   -2.2599 H   0  0
    0.7799    9.3439    0.9199 H   0  0
   -1.2703    9.2495    2.2907 H   0  0
    1.1178    9.3169   -2.1447 H   0  0
    1.9533   10.4086   -1.0103 H   0  0
    1.0379   11.0822   -2.3585 H   0  0
  1  2  2  0
  1 14  1  0
  2  3  1  0
  2 33  1  0
  3  6  2  0
  3 34  1  0
  4  1  1  0
  4 35  1  0
  5  4  2  0
  5  6  1  0
  6  7  1  0
  7  8  1  0
  7 36  1  0
  8  9  2  0
  8 37  1  0
  9  5  1  0
  9 10  1  0
 10 11  1  0
 10 38  1  0
 10 39  1  0
 11 12  1  0
 11 13  2  0
 12 40  1  0
 14 15  1  0
 15 16  1  0
 15 41  1  0
 15 42  1  0
 16 17  1  0
 16 43  1  0
 16 44  1  0
 17 18  1  0
 17 45  1  0
 17 46  1  0
 18 19  1  0
 19 20  2  0
 20 21  1  0
 20 47  1  0
 21 22  2  0
 21 48  1  0
 22 23  1  0
 22 49  1  0
 23 24  2  0
 23 25  1  0
 24 19  1  0
 24 50  1  0
 25 26  1  0
 26 27  2  0
 27 28  1  0
 27 51  1  0
 28 29  2  0
 28 52  1  0
 29 30  1  0
 29 32  1  0
 30 31  2  0
 30 53  1  0
 31 26  1  0
 31 54  1  0
 32 55  1  0
 32 56  1  0
 32 57  1  0
M  END
> <Name>
CHEMBL3597414

> <Clean Energy>
31.5469

> <chembl_id>
CHEMBL3597414

> <chembl_pref_name>
None

> <efficacy>
1.454

> <Forcefield>
MMFF

> <ForcefieldBase>
MMFF

> <ForcefieldFFML>
<?xml version="1.0" encoding="UTF-8"?>
<!DOCTYPE ffml SYSTEM "Ffml.dtd">
<ffml version="1.0">
<forcefield name="MMFF" derivedFrom="MMFF" base="MMFF">
<atomTypes>
<atomType
name="C100"
element="C"
mass="12.011"
annotation=""/>
<atomType
name="N101"
element="N"
mass="14.007"
annotation=""/>
<atomType
name="O102"
element="O"
mass="16"
annotation=""/>
<atomType
name="H103"
element="H"
mass="1.008"
annotation=""/>
</atomTypes>
<parameters>
</parameters>
</forcefield>
</ffml>

> <Initial Potential Energy>
220.66914

> <Initial RMS Gradient>
46.01024

> <Minimization Criteria>
STEEPD> Minimization exiting with gradient tolerance ( 3.0000000) satisfied.

> <CHARMm Energy>
55.68384

> <Potential Energy>
55.68384

> <RMS Gradient>
0.0188

> <Bond Energy>
4.93369

> <Angle Energy>
17.98829

> <STRBend>
-0.34812

> <Dihedral Energy>
5.71953

> <OOPLane>
0.08176

> <Van der Waals Energy>
61.85482

> <Electrostatic Energy>
-34.54614

> <Hydrogen Bond Energy>
0

> <Solvation Free Energy>
0

> <HasGasteigerCharges>
true

> <REMARK99>
REMARK  99  MacroMolecule created from Mol2 file
REMARK  99  CHEMBL3597414
REMARK  99  PROTEIN
REMARK  99  GASTEIGER
REMARK  99
REMARK  99

$$$$
CHEMBL1813007
  SciTegic05292516403D

 58 61  0  0  0  0            999 V2000
    4.0237  -21.4734   -1.3377 C   0  0
    3.1073  -22.3209   -0.7181 C   0  0
    3.4746  -23.0297    0.4243 C   0  0
    4.7466  -22.8502    0.9731 C   0  0
    5.6632  -21.9708    0.3791 C   0  0
    5.2949  -21.2907   -0.7886 C   0  0
    7.0386  -21.7818    0.9747 C   0  0
    8.0770  -22.7079    0.3375 C   0  0  1  0  0  0
    9.4479  -22.2728    0.8335 C   0  0
    7.8606  -24.0637    0.7900 O   0  0
    8.2890  -25.0224   -0.1863 C   0  0
    8.0846  -26.4081    0.3911 C   0  0
   10.0744  -21.3098    0.4169 O   0  0
    9.9208  -23.0810    1.8227 O   0  0
    1.8956  -22.4728   -1.3319 O   0  0
    0.7636  -22.3215   -0.4587 C   0  0
   -0.1813  -23.4708   -0.5226 C   0  0
   -1.4812  -23.3256   -0.0765 N   0  0
   -2.0651  -24.4959   -0.2940 C   0  0
   -1.1864  -25.4251   -0.8132 O   0  0
   -0.0044  -24.7621   -0.9672 C   0  0
    1.1196  -25.5235   -1.5415 C   0  0
   -3.4419  -24.7639    0.0093 C   0  0
   -4.3712  -23.8714    0.5063 C   0  0
   -5.6527  -24.4667    0.6923 C   0  0
   -5.6686  -25.8016    0.3378 C   0  0
   -4.1319  -26.3113   -0.2253 S   0  0
   -6.7953  -26.7372    0.3593 C   0  0
   -8.0127  -26.3711   -0.2335 C   0  0
   -9.0984  -27.2457   -0.2193 C   0  0
   -8.9788  -28.4914    0.3928 C   0  0
   -7.7793  -28.8660    0.9937 C   0  0
   -6.6917  -27.9925    0.9778 C   0  0
    3.7461  -20.9460   -2.2466 H   0  0
    2.7916  -23.7351    0.8894 H   0  0
    5.0224  -23.4096    1.8648 H   0  0
    5.9908  -20.6133   -1.2791 H   0  0
    7.3309  -20.7302    0.8549 H   0  0
    6.9851  -21.9575    2.0575 H   0  0
    8.0575  -22.6568   -0.7576 H   0  0
    7.6918  -24.9068   -1.0970 H   0  0
    9.3471  -24.8678   -0.4238 H   0  0
    8.3933  -27.1771   -0.3226 H   0  0
    7.0325  -26.5657    0.6500 H   0  0
    8.6617  -26.5297    1.3139 H   0  0
    9.2248  -23.7670    1.9796 H   0  0
    1.0415  -22.1361    0.5864 H   0  0
    0.2352  -21.4228   -0.7985 H   0  0
    1.9462  -25.5882   -0.8279 H   0  0
    1.4843  -25.0438   -2.4546 H   0  0
    0.8164  -26.5438   -1.7969 H   0  0
   -4.1430  -22.8346    0.7242 H   0  0
   -6.5187  -23.9386    1.0732 H   0  0
   -8.1173  -25.4056   -0.7238 H   0  0
  -10.0400  -26.9599   -0.6834 H   0  0
   -9.8260  -29.1720    0.4044 H   0  0
   -7.6986  -29.8377    1.4760 H   0  0
   -5.7645  -28.2956    1.4587 H   0  0
  1  2  2  0
  1 34  1  0
  2  3  1  0
  2 15  1  0
  3  4  2  0
  3 35  1  0
  4  5  1  0
  4 36  1  0
  5  6  2  0
  5  7  1  0
  6  1  1  0
  6 37  1  0
  7  8  1  0
  7 38  1  0
  7 39  1  0
  8  9  1  0
  8 10  1  0
  8 40  1  0
  9 13  2  0
  9 14  1  0
 10 11  1  0
 11 12  1  0
 11 41  1  0
 11 42  1  0
 12 43  1  0
 12 44  1  0
 12 45  1  0
 14 46  1  0
 15 16  1  0
 16 17  1  0
 16 47  1  0
 16 48  1  0
 17 18  1  0
 18 19  2  0
 19 20  1  0
 19 23  1  0
 20 21  1  0
 21 17  2  0
 21 22  1  0
 22 49  1  0
 22 50  1  0
 22 51  1  0
 23 24  2  0
 24 25  1  0
 24 52  1  0
 25 26  2  0
 25 53  1  0
 26 27  1  0
 26 28  1  0
 27 23  1  0
 28 29  2  0
 29 30  1  0
 29 54  1  0
 30 31  2  0
 30 55  1  0
 31 32  1  0
 31 56  1  0
 32 33  2  0
 32 57  1  0
 33 28  1  0
 33 58  1  0
M  END
> <Name>
CHEMBL1813007

> <Clean Energy>
57.011299

> <chembl_id>
CHEMBL1813007

> <chembl_pref_name>
None

> <efficacy>
1.04

> <Forcefield>
MMFF

> <ForcefieldBase>
MMFF

> <ForcefieldFFML>
<?xml version="1.0" encoding="UTF-8"?>
<!DOCTYPE ffml SYSTEM "Ffml.dtd">
<ffml version="1.0">
<forcefield name="MMFF" derivedFrom="MMFF" base="MMFF">
<atomTypes>
<atomType
name="C100"
element="C"
mass="12.011"
annotation=""/>
<atomType
name="O101"
element="O"
mass="16"
annotation=""/>
<atomType
name="N102"
element="N"
mass="14.007"
annotation=""/>
<atomType
name="S103"
element="S"
mass="32.066"
annotation=""/>
<atomType
name="H104"
element="H"
mass="1.008"
annotation=""/>
</atomTypes>
<parameters>
</parameters>
</forcefield>
</ffml>

> <Initial Potential Energy>
183.82901

> <Initial RMS Gradient>
28.0087

> <Minimization Criteria>
STEEPD> Minimization exiting with gradient tolerance ( 3.0000000) satisfied.

> <CHARMm Energy>
84.0515

> <Potential Energy>
84.0515

> <RMS Gradient>
0.09293

> <Bond Energy>
4.7961

> <Angle Energy>
10.42546

> <STRBend>
-0.07008

> <Dihedral Energy>
9.84433

> <OOPLane>
0.06142

> <Van der Waals Energy>
46.79181

> <Electrostatic Energy>
12.20244

> <Hydrogen Bond Energy>
0

> <Solvation Free Energy>
0

> <HasGasteigerCharges>
true

> <REMARK99>
REMARK  99  MacroMolecule created from Mol2 file
REMARK  99  CHEMBL1813007
REMARK  99  PROTEIN
REMARK  99  GASTEIGER
REMARK  99
REMARK  99

$$$$
CHEMBL4758029
  SciTegic05292516403D

 49 52  0  0  0  0            999 V2000
    4.2338   -2.9908   -0.7985 C   0  0
    4.2195   -4.2494   -1.4105 C   0  0
    5.4015   -4.9179   -1.7521 C   0  0
    5.4438   -2.3857   -0.4541 C   0  0
    6.6361   -3.0645   -0.7355 C   0  0
    6.6017   -4.2980   -1.3808 C   0  0
    7.9271   -4.6495   -1.4977 N   0  0
    8.6842   -3.6734   -0.8851 C   0  0
    7.9186   -2.6906   -0.4517 N   0  0
    8.4334   -5.8525   -2.1159 C   0  0
   10.1660   -3.7269   -0.7366 C   0  0
   10.4727   -4.9121    0.0009 O   0  0
   11.7323   -5.0023    0.5224 C   0  0
   11.8919   -5.9877    1.5028 C   0  0
   13.1272   -6.1932    2.1192 C   0  0
   14.2189   -5.4067    1.7593 C   0  0
   14.0608   -4.4173    0.7818 C   0  0
   12.8265   -4.2257    0.1470 C   0  0
   15.2009   -3.5706    0.3701 C   0  0
   15.8925   -3.0824    1.4211 O   0  0
   15.4535   -3.3171   -0.7935 O   0  0
    3.0304   -4.8797   -1.7206 O   0  0
    2.1600   -5.0252   -0.6630 C   0  0
    2.5320   -5.6846    0.5052 C   0  0
    1.6028   -5.7534    1.5249 C   0  0
    0.3619   -5.2273    1.4446 N   0  0
    0.0294   -4.6175    0.2846 C   0  0
    0.8810   -4.5050   -0.7980 C   0  0
   -1.2154   -4.0413    0.1378 O   0  0
   -2.0191   -4.1391    1.3097 C   0  0
    3.3042   -2.4748   -0.5744 H   0  0
    5.3753   -5.8810   -2.2485 H   0  0
    5.4777   -1.4193    0.0356 H   0  0
    9.3822   -5.6354   -2.6120 H   0  0
    7.7201   -6.2065   -2.8640 H   0  0
    8.5684   -6.6064   -1.3366 H   0  0
   10.6436   -3.7576   -1.7221 H   0  0
   10.4957   -2.8329   -0.1928 H   0  0
   11.0375   -6.5985    1.7914 H   0  0
   13.2351   -6.9712    2.8711 H   0  0
   15.1877   -5.5899    2.2185 H   0  0
   12.7587   -3.4711   -0.6317 H   0  0
   15.4535   -3.2197    2.2825 H   0  0
    3.5168   -6.1195    0.6260 H   0  0
    1.8400   -6.2432    2.4648 H   0  0
    0.5659   -4.0008   -1.7031 H   0  0
   -2.9745   -3.6486    1.0998 H   0  0
   -1.5554   -3.6170    2.1538 H   0  0
   -2.2301   -5.1846    1.5598 H   0  0
  1  2  2  0
  1 31  1  0
  2  3  1  0
  2 22  1  0
  3  6  2  0
  3 32  1  0
  4  1  1  0
  4 33  1  0
  5  4  2  0
  5  6  1  0
  6  7  1  0
  7  8  1  0
  7 10  1  0
  8  9  2  0
  8 11  1  0
  9  5  1  0
 10 34  1  0
 10 35  1  0
 10 36  1  0
 11 12  1  0
 11 37  1  0
 11 38  1  0
 12 13  1  0
 13 14  2  0
 14 15  1  0
 14 39  1  0
 15 16  2  0
 15 40  1  0
 16 17  1  0
 16 41  1  0
 17 18  2  0
 17 19  1  0
 18 13  1  0
 18 42  1  0
 19 20  1  0
 19 21  2  0
 20 43  1  0
 22 23  1  0
 23 24  2  0
 24 25  1  0
 24 44  1  0
 25 26  2  0
 25 45  1  0
 26 27  1  0
 27 28  2  0
 27 29  1  0
 28 23  1  0
 28 46  1  0
 29 30  1  0
 30 47  1  0
 30 48  1  0
 30 49  1  0
M  END
> <Name>
CHEMBL4758029

> <Clean Energy>
32.408699

> <chembl_id>
CHEMBL4758029

> <chembl_pref_name>
None

> <efficacy>
1.1

> <Forcefield>
MMFF

> <ForcefieldBase>
MMFF

> <ForcefieldFFML>
<?xml version="1.0" encoding="UTF-8"?>
<!DOCTYPE ffml SYSTEM "Ffml.dtd">
<ffml version="1.0">
<forcefield name="MMFF" derivedFrom="MMFF" base="MMFF">
<atomTypes>
<atomType
name="C100"
element="C"
mass="12.011"
annotation=""/>
<atomType
name="N101"
element="N"
mass="14.007"
annotation=""/>
<atomType
name="O102"
element="O"
mass="16"
annotation=""/>
<atomType
name="H103"
element="H"
mass="1.008"
annotation=""/>
</atomTypes>
<parameters>
</parameters>
</forcefield>
</ffml>

> <Initial Potential Energy>
178.04728

> <Initial RMS Gradient>
47.35907

> <Minimization Criteria>
STEEPD> Minimization exiting with gradient tolerance ( 3.0000000) satisfied.

> <CHARMm Energy>
39.36355

> <Potential Energy>
39.36355

> <RMS Gradient>
0.04274

> <Bond Energy>
3.74095

> <Angle Energy>
16.95709

> <STRBend>
0.36418

> <Dihedral Energy>
13.76679

> <OOPLane>
0.04991

> <Van der Waals Energy>
62.14208

> <Electrostatic Energy>
-57.65745

> <Hydrogen Bond Energy>
0

> <Solvation Free Energy>
0

> <HasGasteigerCharges>
true

> <REMARK99>
REMARK  99  MacroMolecule created from Mol2 file
REMARK  99  CHEMBL4758029
REMARK  99  PROTEIN
REMARK  99  GASTEIGER
REMARK  99
REMARK  99

$$$$
CHEMBL4854804
  SciTegic05292516403D

 38 40  0  0  0  0            999 V2000
   30.3355   -5.0425   -1.8394 C   0  0
   31.6305   -4.5319   -1.6832 C   0  0
   31.8962   -3.4729   -0.8084 C   0  0
   30.8442   -2.8973   -0.0733 C   0  0
   29.3152   -4.4664   -1.0751 C   0  0
   29.5420   -3.4118   -0.1963 C   0  0
   28.3008   -3.0999    0.4159 C   0  0
   27.3366   -3.9466   -0.0978 C   0  0
   27.9730   -4.7627   -1.0070 N   0  0
   33.3046   -2.9672   -0.6092 C   0  0
   33.8265   -3.3732    0.7668 C   0  0
   35.1777   -2.7757    1.0361 C   0  0
   35.5249   -2.8527    2.3435 O   0  0
   35.9178   -2.2915    0.1950 O   0  0
   25.9076   -4.0451    0.1931 C   0  0
   25.0441   -2.9350    0.0828 C   0  0
   23.6912   -3.0881    0.4251 C   0  0
   23.1965   -4.3249    0.8401 C   0  0
   24.0432   -5.4245    0.9362 C   0  0
   25.3923   -5.2836    0.6154 C   0  0
   25.5338   -1.5811   -0.3600 C   0  0
   21.5300   -4.4909    1.2390 Cl  0  0
   30.1410   -5.8628   -2.5226 H   0  0
   32.4383   -4.9804   -2.2585 H   0  0
   31.0287   -2.0682    0.6040 H   0  0
   28.1319   -2.3366    1.1640 H   0  0
   27.5159   -5.4771   -1.5553 H   0  0
   33.9644   -3.3560   -1.3950 H   0  0
   33.3105   -1.8753   -0.7218 H   0  0
   33.1408   -3.0220    1.5469 H   0  0
   33.9081   -4.4635    0.8421 H   0  0
   34.8330   -3.2624    2.8991 H   0  0
   23.0121   -2.2398    0.3608 H   0  0
   23.6560   -6.3860    1.2647 H   0  0
   26.0604   -6.1364    0.7255 H   0  0
   24.6970   -0.9367   -0.6515 H   0  0
   26.1833   -1.6640   -1.2373 H   0  0
   26.0700   -1.0855    0.4547 H   0  0
  1  2  2  0
  1 23  1  0
  2  3  1  0
  2 24  1  0
  3  4  2  0
  3 10  1  0
  4  6  1  0
  4 25  1  0
  5  1  1  0
  5  6  2  0
  6  7  1  0
  7  8  2  0
  7 26  1  0
  8  9  1  0
  8 15  1  0
  9  5  1  0
  9 27  1  0
 10 11  1  0
 10 28  1  0
 10 29  1  0
 11 12  1  0
 11 30  1  0
 11 31  1  0
 12 13  1  0
 12 14  2  0
 13 32  1  0
 15 16  2  0
 16 17  1  0
 16 21  1  0
 17 18  2  0
 17 33  1  0
 18 19  1  0
 18 22  1  0
 19 20  2  0
 19 34  1  0
 20 15  1  0
 20 35  1  0
 21 36  1  0
 21 37  1  0
 21 38  1  0
M  END
> <Name>
CHEMBL4854804

> <Clean Energy>
24.4562

> <chembl_id>
CHEMBL4854804

> <chembl_pref_name>
None

> <efficacy>
1.043

> <Forcefield>
MMFF

> <ForcefieldBase>
MMFF

> <ForcefieldFFML>
<?xml version="1.0" encoding="UTF-8"?>
<!DOCTYPE ffml SYSTEM "Ffml.dtd">
<ffml version="1.0">
<forcefield name="MMFF" derivedFrom="MMFF" base="MMFF">
<atomTypes>
<atomType
name="C100"
element="C"
mass="12.011"
annotation=""/>
<atomType
name="N101"
element="N"
mass="14.007"
annotation=""/>
<atomType
name="O102"
element="O"
mass="16"
annotation=""/>
<atomType
name="Cl103"
element="Cl"
mass="35.453"
annotation=""/>
<atomType
name="H104"
element="H"
mass="1.008"
annotation=""/>
</atomTypes>
<parameters>
</parameters>
</forcefield>
</ffml>

> <Initial Potential Energy>
63.02317

> <Initial RMS Gradient>
31.95072

> <Minimization Criteria>
CONJUG> Minimization exiting with gradient tolerance ( 0.0100000) satisfied.

> <CHARMm Energy>
8.0277

> <Potential Energy>
8.0277

> <RMS Gradient>
0.00627

> <Bond Energy>
4.20673

> <Angle Energy>
2.85662

> <STRBend>
-0.63251

> <Dihedral Energy>
1.40056

> <OOPLane>
0.0313

> <Van der Waals Energy>
37.83954

> <Electrostatic Energy>
-37.67454

> <Hydrogen Bond Energy>
0

> <Solvation Free Energy>
0

> <HasGasteigerCharges>
true

> <REMARK99>
REMARK  99  MacroMolecule created from Mol2 file
REMARK  99  CHEMBL4854804
REMARK  99  PROTEIN
REMARK  99  GASTEIGER
REMARK  99
REMARK  99

$$$$
CHEMBL4749400
  SciTegic05292516403D

 58 61  0  0  0  0            999 V2000
   30.4631  -17.1252   -0.2423 C   0  0
   30.3595  -18.5144   -0.3214 C   0  0
   31.5112  -19.3040   -0.4446 C   0  0
   31.7117  -16.4794   -0.2848 C   0  0
   32.8825  -17.2669   -0.3992 C   0  0
   32.7570  -18.6554   -0.4765 C   0  0
   34.0521  -19.1166   -0.5821 N   0  0
   34.9011  -18.0319   -0.5736 C   0  0
   34.2131  -16.9122   -0.4589 N   0  0
   34.4537  -20.5009   -0.6741 C   0  0
   36.3885  -18.1204   -0.7146 C   0  0
   36.8892  -18.8349    0.4211 O   0  0
   38.2120  -18.6338    0.7044 C   0  0
   38.5426  -18.6698    2.0630 C   0  0
   39.8605  -18.4861    2.4810 C   0  0
   40.8594  -18.2729    1.5355 C   0  0
   40.5310  -18.2544    0.1748 C   0  0
   39.2125  -18.4493   -0.2497 C   0  0
   41.5956  -18.0616   -0.8302 C   0  0
   42.3279  -16.9518   -0.5860 O   0  0
   41.7896  -18.8183   -1.7639 O   0  0
   29.1698  -19.2178   -0.3418 O   0  0
   28.0271  -18.5877    0.0813 C   0  0
   27.8199  -18.3305    1.4343 C   0  0
   26.6223  -17.7466    1.8394 C   0  0
   25.6619  -17.4454    0.8770 C   0  0
   25.8415  -17.7066   -0.4408 N   0  0
   27.0107  -18.2838   -0.8246 C   0  0
   27.1637  -18.5809   -2.2864 C   0  0
   24.3611  -16.8159    1.2810 C   0  0
   31.6175  -15.0946   -0.1762 O   0  0
   32.7719  -14.3392   -0.5408 C   0  0
   33.5812  -13.9793    0.6919 C   0  0
   29.5762  -16.5010   -0.1662 H   0  0
   31.4297  -20.3837   -0.5189 H   0  0
   35.2840  -20.5923   -1.3776 H   0  0
   33.6193  -21.1046   -1.0378 H   0  0
   34.7540  -20.8349    0.3218 H   0  0
   36.6486  -18.6505   -1.6377 H   0  0
   36.8013  -17.1042   -0.7493 H   0  0
   37.7645  -18.8372    2.8045 H   0  0
   40.1058  -18.5201    3.5403 H   0  0
   41.8901  -18.1544    1.8600 H   0  0
   38.9995  -18.4690   -1.3136 H   0  0
   41.9148  -16.3612    0.0754 H   0  0
   28.5807  -18.5839    2.1667 H   0  0
   26.4405  -17.5350    2.8885 H   0  0
   28.0070  -18.0221   -2.7031 H   0  0
   26.2626  -18.2930   -2.8372 H   0  0
   27.3257  -19.6519   -2.4422 H   0  0
   23.7275  -16.6364    0.4063 H   0  0
   24.5434  -15.8553    1.7728 H   0  0
   23.8184  -17.4745    1.9663 H   0  0
   33.3708  -14.8134   -1.3246 H   0  0
   32.3991  -13.4090   -0.9851 H   0  0
   34.4421  -13.3610    0.4220 H   0  0
   33.9376  -14.8701    1.2165 H   0  0
   32.9613  -13.4243    1.4043 H   0  0
  1  2  2  0
  1 34  1  0
  2  3  1  0
  2 22  1  0
  3  6  2  0
  3 35  1  0
  4  1  1  0
  4 31  1  0
  5  4  2  0
  5  6  1  0
  6  7  1  0
  7  8  1  0
  7 10  1  0
  8  9  2  0
  8 11  1  0
  9  5  1  0
 10 36  1  0
 10 37  1  0
 10 38  1  0
 11 12  1  0
 11 39  1  0
 11 40  1  0
 12 13  1  0
 13 14  2  0
 14 15  1  0
 14 41  1  0
 15 16  2  0
 15 42  1  0
 16 17  1  0
 16 43  1  0
 17 18  2  0
 17 19  1  0
 18 13  1  0
 18 44  1  0
 19 20  1  0
 19 21  2  0
 20 45  1  0
 22 23  1  0
 23 24  2  0
 24 25  1  0
 24 46  1  0
 25 26  2  0
 25 47  1  0
 26 27  1  0
 26 30  1  0
 27 28  2  0
 28 23  1  0
 28 29  1  0
 29 48  1  0
 29 49  1  0
 29 50  1  0
 30 51  1  0
 30 52  1  0
 30 53  1  0
 31 32  1  0
 32 33  1  0
 32 54  1  0
 32 55  1  0
 33 56  1  0
 33 57  1  0
 33 58  1  0
M  END
> <Name>
CHEMBL4749400

> <Clean Energy>
38.5294

> <chembl_id>
CHEMBL4749400

> <chembl_pref_name>
None

> <efficacy>
1.03

> <Forcefield>
MMFF

> <ForcefieldBase>
MMFF

> <ForcefieldFFML>
<?xml version="1.0" encoding="UTF-8"?>
<!DOCTYPE ffml SYSTEM "Ffml.dtd">
<ffml version="1.0">
<forcefield name="MMFF" derivedFrom="MMFF" base="MMFF">
<atomTypes>
<atomType
name="C100"
element="C"
mass="12.011"
annotation=""/>
<atomType
name="N101"
element="N"
mass="14.007"
annotation=""/>
<atomType
name="O102"
element="O"
mass="16"
annotation=""/>
<atomType
name="H103"
element="H"
mass="1.008"
annotation=""/>
</atomTypes>
<parameters>
</parameters>
</forcefield>
</ffml>

> <Initial Potential Energy>
250.1611

> <Initial RMS Gradient>
48.98073

> <Minimization Criteria>
STEEPD> Minimization exiting with gradient tolerance ( 3.0000000) satisfied.

> <CHARMm Energy>
95.61119

> <Potential Energy>
95.61119

> <RMS Gradient>
0.14486

> <Bond Energy>
5.30081

> <Angle Energy>
23.12162

> <STRBend>
0.70107

> <Dihedral Energy>
12.63382

> <OOPLane>
0.10056

> <Van der Waals Energy>
63.18671

> <Electrostatic Energy>
-9.43339

> <Hydrogen Bond Energy>
0

> <Solvation Free Energy>
0

> <HasGasteigerCharges>
true

> <REMARK99>
REMARK  99  MacroMolecule created from Mol2 file
REMARK  99  CHEMBL4749400
REMARK  99  PROTEIN
REMARK  99  GASTEIGER
REMARK  99
REMARK  99

$$$$
CHEMBL3335661
  SciTegic05292516403D

 59 61  0  0  0  0            999 V2000
    5.5574  -12.0900    0.2189 C   0  0
    5.5218  -13.3911    0.7130 C   0  0
    6.6640  -14.2016    0.6754 C   0  0
    7.8668  -13.7203    0.1517 C   0  0
    7.8882  -12.3895   -0.3174 C   0  0
    6.7408  -11.5853   -0.3033 C   0  0
    9.1424  -11.7327   -0.7466 C   0  0
   10.1365  -11.7982    0.2103 N   0  0
    9.1885  -11.1919   -1.8415 O   0  0
   11.4340  -11.2677    0.1336 C   0  0
    9.0391  -14.5193    0.0508 N   0  0
    9.2451  -15.7773    0.5890 C   0  0
   10.5522  -16.4184    0.2658 C   0  0
    8.4594  -16.3970    1.2942 O   0  0
   10.5971  -17.8114    0.1571 C   0  0
   11.8028  -18.4596   -0.1311 C   0  0
   12.9990  -17.7378   -0.3111 C   0  0
   12.9356  -16.3395   -0.1801 C   0  0
   11.7303  -15.6845    0.1085 C   0  0
   14.3096  -18.4845   -0.6220 C   0  0
   14.1519  -19.2863   -1.9322 C   0  0
   15.5313  -17.5550   -0.8009 C   0  0
   14.6395  -19.4559    0.5317 C   0  0
   12.2510  -11.4255    1.2549 C   0  0
   13.5594  -10.9143    1.2757 C   0  0
   14.0606  -10.2464    0.1470 C   0  0
   13.2372  -10.0902   -0.9726 C   0  0
   11.9354  -10.6002   -0.9789 C   0  0
   14.3342  -11.1463    2.5292 C   0  0
   15.4235  -10.3740    2.6987 O   0  0
   13.9762  -11.9598    3.3675 O   0  0
   15.3420   -9.7705    0.2208 O   0  0
   15.9221   -9.2845   -0.9862 C   0  0
    4.6676  -11.4672    0.2526 H   0  0
    4.5980  -13.7870    1.1287 H   0  0
    6.5642  -15.2168    1.0499 H   0  0
    6.7774  -10.5620   -0.6729 H   0  0
    9.8843  -12.2405    1.0905 H   0  0
    9.7882  -14.1339   -0.5133 H   0  0
    9.6933  -18.4035    0.2992 H   0  0
   11.7935  -19.5471   -0.2045 H   0  0
   13.8250  -15.7227   -0.2839 H   0  0
   11.7506  -14.6070    0.2387 H   0  0
   15.0840  -19.7997   -2.1961 H   0  0
   13.8856  -18.6281   -2.7677 H   0  0
   13.3742  -20.0542   -1.8577 H   0  0
   16.4365  -18.1314   -1.0268 H   0  0
   15.7365  -16.9784    0.1087 H   0  0
   15.3839  -16.8495   -1.6269 H   0  0
   15.5876  -19.9761    0.3515 H   0  0
   13.8707  -20.2261    0.6578 H   0  0
   14.7284  -18.9208    1.4846 H   0  0
   11.8745  -11.9428    2.1369 H   0  0
   13.5679   -9.5664   -1.8653 H   0  0
   11.3363  -10.4490   -1.8727 H   0  0
   15.6222   -9.7885    1.9361 H   0  0
   16.9701   -9.0481   -0.7778 H   0  0
   15.4335   -8.3604   -1.3113 H   0  0
   15.9046  -10.0457   -1.7734 H   0  0
  1  2  2  0
  1 34  1  0
  2  3  1  0
  2 35  1  0
  3  4  2  0
  3 36  1  0
  4  5  1  0
  4 11  1  0
  5  6  2  0
  5  7  1  0
  6  1  1  0
  6 37  1  0
  7  8  1  0
  7  9  2  0
  8 10  1  0
  8 38  1  0
 10 24  2  0
 11 12  1  0
 11 39  1  0
 12 13  1  0
 12 14  2  0
 13 15  2  0
 15 16  1  0
 15 40  1  0
 16 17  2  0
 16 41  1  0
 17 18  1  0
 17 20  1  0
 18 19  2  0
 18 42  1  0
 19 13  1  0
 19 43  1  0
 20 21  1  0
 20 22  1  0
 20 23  1  0
 21 44  1  0
 21 45  1  0
 21 46  1  0
 22 47  1  0
 22 48  1  0
 22 49  1  0
 23 50  1  0
 23 51  1  0
 23 52  1  0
 24 25  1  0
 24 53  1  0
 25 26  2  0
 25 29  1  0
 26 27  1  0
 26 32  1  0
 27 28  2  0
 27 54  1  0
 28 10  1  0
 28 55  1  0
 29 30  1  0
 29 31  2  0
 30 56  1  0
 32 33  1  0
 33 57  1  0
 33 58  1  0
 33 59  1  0
M  END
> <Name>
CHEMBL3335661

> <Clean Energy>
12.2584

> <chembl_id>
CHEMBL3335661

> <chembl_pref_name>
None

> <efficacy>
0.911680912

> <Forcefield>
MMFF

> <ForcefieldBase>
MMFF

> <ForcefieldFFML>
<?xml version="1.0" encoding="UTF-8"?>
<!DOCTYPE ffml SYSTEM "Ffml.dtd">
<ffml version="1.0">
<forcefield name="MMFF" derivedFrom="MMFF" base="MMFF">
<atomTypes>
<atomType
name="C100"
element="C"
mass="12.011"
annotation=""/>
<atomType
name="N101"
element="N"
mass="14.007"
annotation=""/>
<atomType
name="O102"
element="O"
mass="16"
annotation=""/>
<atomType
name="H103"
element="H"
mass="1.008"
annotation=""/>
</atomTypes>
<parameters>
</parameters>
</forcefield>
</ffml>

> <Initial Potential Energy>
261.21212

> <Initial RMS Gradient>
68.50938

> <Minimization Criteria>
CONJUG> Minimization exiting with gradient tolerance ( 0.0100000) satisfied.

> <CHARMm Energy>
80.84577

> <Potential Energy>
80.84577

> <RMS Gradient>
0.0098

> <Bond Energy>
8.32474

> <Angle Energy>
20.53424

> <STRBend>
2.01189

> <Dihedral Energy>
12.90172

> <OOPLane>
0.10704

> <Van der Waals Energy>
83.34011

> <Electrostatic Energy>
-46.37396

> <Hydrogen Bond Energy>
0

> <Solvation Free Energy>
0

> <HasGasteigerCharges>
true

> <REMARK99>
REMARK  99  MacroMolecule created from Mol2 file
REMARK  99  CHEMBL3335661
REMARK  99  PROTEIN
REMARK  99  GASTEIGER
REMARK  99
REMARK  99

$$$$
CHEMBL519857
  SciTegic05292516403D

 50 52  0  0  0  0            999 V2000
   -7.4770   -4.5681    0.1474 C   0  0
   -7.3580   -5.8706   -0.3359 C   0  0
   -6.0950   -6.4090   -0.6163 C   0  0
   -4.9497   -5.6134   -0.4263 C   0  0
   -5.0675   -4.2976    0.0390 C   0  0
   -6.3356   -3.7856    0.3386 C   0  0
   -3.8813   -3.4253    0.2169 C   0  0
   -2.5457   -3.7665   -0.3551 C   0  0
   -3.9086   -2.3168    0.8892 N   0  0
   -2.5996   -1.7702    0.8311 O   0  0
   -1.9299   -2.3828   -0.2849 C   0  0  1  0  0  0
   -0.4214   -2.3974   -0.1467 C   0  0
    0.3723   -2.7076   -1.2639 C   0  0
    1.7692   -2.7260   -1.1727 C   0  0
    2.3973   -2.4514    0.0428 C   0  0
    1.6138   -2.1413    1.1564 C   0  0
    0.2189   -2.1151    1.0668 C   0  0
   -5.9589   -7.8305   -1.1190 C   0  0
   -5.6876   -8.8462    0.0076 C   0  0  1  0  0  0
   -7.0080   -9.5687    0.3427 C   0  0
   -4.6362   -9.6966   -0.4608 O   0  0
   -4.1545  -10.6026    0.5303 C   0  0
   -2.9875  -11.3704   -0.0597 C   0  0
   -7.8391   -8.8543    1.1447 O   0  0
   -7.3184  -10.6855   -0.0492 O   0  0
    3.7481   -2.4474    0.2651 O   0  0
    4.5553   -3.0183   -0.7569 C   0  0
   -8.4604   -4.1543    0.3640 H   0  0
   -8.2629   -6.4540   -0.5039 H   0  0
   -3.9722   -6.0358   -0.6495 H   0  0
   -6.4468   -2.7672    0.7082 H   0  0
   -2.0517   -4.4888    0.3030 H   0  0
   -2.5941   -4.1505   -1.3766 H   0  0
   -2.1975   -1.7882   -1.1688 H   0  0
   -0.1042   -2.9449   -2.2141 H   0  0
    2.3503   -2.9286   -2.0690 H   0  0
    2.1043   -1.9042    2.0997 H   0  0
   -0.3650   -1.8790    1.9546 H   0  0
   -6.8613   -8.1003   -1.6836 H   0  0
   -5.1465   -7.8495   -1.8584 H   0  0
   -5.3271   -8.3511    0.9183 H   0  0
   -3.8207  -10.0444    1.4116 H   0  0
   -4.9415  -11.3026    0.8256 H   0  0
   -2.5770  -12.0761    0.6680 H   0  0
   -2.1941  -10.6839   -0.3739 H   0  0
   -3.3008  -11.9238   -0.9513 H   0  0
   -7.4817   -7.9889    1.4265 H   0  0
    5.5814   -3.0716   -0.3804 H   0  0
    4.5624   -2.3829   -1.6485 H   0  0
    4.2379   -4.0383   -0.9995 H   0  0
  1  2  2  0
  1 28  1  0
  2  3  1  0
  2 29  1  0
  3  4  2  0
  3 18  1  0
  4  5  1  0
  4 30  1  0
  5  6  2  0
  5  7  1  0
  6  1  1  0
  6 31  1  0
  7  8  1  0
  7  9  2  0
  8 11  1  0
  8 32  1  0
  8 33  1  0
  9 10  1  0
 10 11  1  0
 11 12  1  0
 11 34  1  0
 12 13  2  0
 13 14  1  0
 13 35  1  0
 14 15  2  0
 14 36  1  0
 15 16  1  0
 15 26  1  0
 16 17  2  0
 16 37  1  0
 17 12  1  0
 17 38  1  0
 18 19  1  0
 18 39  1  0
 18 40  1  0
 19 20  1  0
 19 21  1  0
 19 41  1  0
 20 24  1  0
 20 25  2  0
 21 22  1  0
 22 23  1  0
 22 42  1  0
 22 43  1  0
 23 44  1  0
 23 45  1  0
 23 46  1  0
 24 47  1  0
 26 27  1  0
 27 48  1  0
 27 49  1  0
 27 50  1  0
M  END
> <Name>
CHEMBL519857

> <Clean Energy>
46.794601

> <chembl_id>
CHEMBL519857

> <chembl_pref_name>
None

> <efficacy>
1.21

> <Forcefield>
MMFF

> <ForcefieldBase>
MMFF

> <ForcefieldFFML>
<?xml version="1.0" encoding="UTF-8"?>
<!DOCTYPE ffml SYSTEM "Ffml.dtd">
<ffml version="1.0">
<forcefield name="MMFF" derivedFrom="MMFF" base="MMFF">
<atomTypes>
<atomType
name="C100"
element="C"
mass="12.011"
annotation=""/>
<atomType
name="N101"
element="N"
mass="14.007"
annotation=""/>
<atomType
name="O102"
element="O"
mass="16"
annotation=""/>
<atomType
name="H103"
element="H"
mass="1.008"
annotation=""/>
</atomTypes>
<parameters>
</parameters>
</forcefield>
</ffml>

> <Initial Potential Energy>
247.59239

> <Initial RMS Gradient>
43.06925

> <Minimization Criteria>
STEEPD> Minimization exiting with gradient tolerance ( 3.0000000) satisfied.

> <CHARMm Energy>
101.42774

> <Potential Energy>
101.42774

> <RMS Gradient>
0.08492

> <Bond Energy>
5.46956

> <Angle Energy>
17.32769

> <STRBend>
0.81977

> <Dihedral Energy>
4.52986

> <OOPLane>
0.00989

> <Van der Waals Energy>
48.25217

> <Electrostatic Energy>
25.01881

> <Hydrogen Bond Energy>
0

> <Solvation Free Energy>
0

> <HasGasteigerCharges>
true

> <REMARK99>
REMARK  99  MacroMolecule created from Mol2 file
REMARK  99  CHEMBL519857
REMARK  99  PROTEIN
REMARK  99  GASTEIGER
REMARK  99
REMARK  99

$$$$
CHEMBL4465311
  SciTegic05292516403D

 81 85  0  0  0  0            999 V2000
   18.9615  -22.3120    0.2163 C   0  0
   17.6725  -22.2408    0.2554 N   0  0
   17.2086  -23.6128    0.2515 O   0  0
   18.3264  -24.4124    0.2233 C   0  0
   19.3936  -23.5968    0.1526 N   0  0
   19.2814  -12.7576   -1.5031 C   0  0
   19.4692  -14.0971   -1.3180 O   0  0
   20.6317  -14.2368   -0.5659 N   0  0
   21.0463  -12.9712   -0.3975 C   0  0
   20.2241  -12.0178   -0.9581 N   0  0
   16.3229  -17.2712   -1.1232 C   0  0
   16.9510  -18.1338   -2.0427 C   0  0
   17.9486  -19.0542   -1.6462 C   0  0
   18.3603  -19.1539   -0.3103 C   0  0
   17.6865  -18.3279    0.6156 C   0  0
   16.6881  -17.4052    0.2207 C   0  0
   19.6493  -19.8100    0.0537 C   0  0
   19.9412  -21.1851    0.2718 C   0  0
   21.2722  -21.5530    0.6224 C   0  0
   22.3044  -20.6192    0.7219 C   0  0
   22.0347  -19.2848    0.4846 C   0  0
   20.7351  -18.8941    0.1607 C   0  0
   15.2233  -16.3105   -1.5864 C   0  0
   15.4324  -14.8618   -1.3385 N   0  0
   16.4038  -14.2351   -2.0956 C   0  0
   16.7691  -12.8542   -1.7007 C   0  0
   15.9109  -12.2127   -0.8887 C   0  0
   14.7450  -12.7850   -0.4456 N   0  0
   14.5570  -14.0542   -0.6308 C   0  0
   16.9761  -14.7703   -3.0441 O   0  0
   13.3007  -14.6939   -0.0472 C   0  0
   12.3880  -13.7222    0.7015 C   0  0
   11.1508  -14.4336    1.2484 C   0  0
   10.2342  -13.4682    1.9821 C   0  0
   18.0705  -12.3485   -2.2637 C   0  0
   22.2869  -12.6263    0.3850 C   0  0
   18.3531  -25.6357    0.2723 O   0  0
   16.1607  -10.8079   -0.3443 C   0  0
   23.4200  -13.6350    0.1052 C   0  0
   22.8008  -11.2232    0.0012 C   0  0
   21.9683  -12.6389    1.8915 C   0  0
   15.1686   -9.8065   -0.9401 C   0  0
   16.1023  -10.7797    1.1872 C   0  0
   20.3097  -24.0125    0.1013 H   0  0
   16.6957  -18.0783   -3.1002 H   0  0
   18.4513  -19.6396   -2.4135 H   0  0
   17.9846  -18.3489    1.6633 H   0  0
   16.2225  -16.7816    0.9810 H   0  0
   21.5462  -22.5790    0.8572 H   0  0
   23.3094  -20.9400    0.9910 H   0  0
   22.8247  -18.5409    0.5532 H   0  0
   20.5573  -17.8312   -0.0235 H   0  0
   15.0860  -16.4250   -2.6700 H   0  0
   14.2928  -16.6617   -1.1342 H   0  0
   12.7388  -15.1487   -0.8717 H   0  0
   13.6125  -15.4958    0.6325 H   0  0
   12.9390  -13.2558    1.5276 H   0  0
   12.0777  -12.9134    0.0281 H   0  0
   10.5959  -14.9011    0.4269 H   0  0
   11.4535  -15.2347    1.9328 H   0  0
    9.3556  -13.9964    2.3650 H   0  0
    9.8882  -12.6733    1.3135 H   0  0
   10.7486  -13.0048    2.8298 H   0  0
   18.1866  -12.6711   -3.3060 H   0  0
   18.0577  -11.2547   -2.3337 H   0  0
   17.1654  -10.4657   -0.6115 H   0  0
   24.3363  -13.3625    0.6416 H   0  0
   23.6583  -13.6763   -0.9643 H   0  0
   23.1467  -14.6487    0.4209 H   0  0
   23.7173  -10.9707    0.5471 H   0  0
   22.0598  -10.4472    0.2271 H   0  0
   23.0238  -11.1627   -1.0708 H   0  0
   22.8513  -12.3824    2.4879 H   0  0
   21.6220  -13.6268    2.2177 H   0  0
   21.1781  -11.9192    2.1368 H   0  0
   15.3742   -8.7949   -0.5733 H   0  0
   14.1338  -10.0525   -0.6765 H   0  0
   15.2439   -9.7860   -2.0330 H   0  0
   16.3746   -9.7872    1.5625 H   0  0
   16.8039  -11.5029    1.6177 H   0  0
   15.0997  -11.0118    1.5640 H   0  0
  1  2  2  0
  2  3  1  0
  3  4  1  0
  4  5  1  0
  4 37  2  0
  5  1  1  0
  5 44  1  0
  6  7  1  0
  7  8  1  0
  8  9  2  0
  9 10  1  0
  9 36  1  0
 10  6  2  0
 11 12  2  0
 11 23  1  0
 12 13  1  0
 12 45  1  0
 13 14  2  0
 13 46  1  0
 14 15  1  0
 14 17  1  0
 15 16  2  0
 15 47  1  0
 16 11  1  0
 16 48  1  0
 17 18  2  0
 18  1  1  0
 18 19  1  0
 19 20  2  0
 19 49  1  0
 20 21  1  0
 20 50  1  0
 21 22  2  0
 21 51  1  0
 22 17  1  0
 22 52  1  0
 23 24  1  0
 23 53  1  0
 23 54  1  0
 24 25  1  0
 24 29  1  0
 25 26  1  0
 25 30  2  0
 26 27  2  0
 26 35  1  0
 27 28  1  0
 27 38  1  0
 28 29  2  0
 29 31  1  0
 31 32  1  0
 31 55  1  0
 31 56  1  0
 32 33  1  0
 32 57  1  0
 32 58  1  0
 33 34  1  0
 33 59  1  0
 33 60  1  0
 34 61  1  0
 34 62  1  0
 34 63  1  0
 35  6  1  0
 35 64  1  0
 35 65  1  0
 36 39  1  0
 36 40  1  0
 36 41  1  0
 38 42  1  0
 38 43  1  0
 38 66  1  0
 39 67  1  0
 39 68  1  0
 39 69  1  0
 40 70  1  0
 40 71  1  0
 40 72  1  0
 41 73  1  0
 41 74  1  0
 41 75  1  0
 42 76  1  0
 42 77  1  0
 42 78  1  0
 43 79  1  0
 43 80  1  0
 43 81  1  0
M  END
> <Name>
CHEMBL4465311

> <Clean Energy>
87.422501

> <chembl_id>
CHEMBL4465311

> <chembl_pref_name>
None

> <efficacy>
1.168091168

> <Forcefield>
MMFF

> <ForcefieldBase>
MMFF

> <ForcefieldFFML>
<?xml version="1.0" encoding="UTF-8"?>
<!DOCTYPE ffml SYSTEM "Ffml.dtd">
<ffml version="1.0">
<forcefield name="MMFF" derivedFrom="MMFF" base="MMFF">
<atomTypes>
<atomType
name="C100"
element="C"
mass="12.011"
annotation=""/>
<atomType
name="N101"
element="N"
mass="14.007"
annotation=""/>
<atomType
name="O102"
element="O"
mass="16"
annotation=""/>
<atomType
name="H103"
element="H"
mass="1.008"
annotation=""/>
</atomTypes>
<parameters>
</parameters>
</forcefield>
</ffml>

> <Initial Potential Energy>
164.18294

> <Initial RMS Gradient>
26.57062

> <Minimization Criteria>
STEEPD> Minimization exiting with gradient tolerance ( 3.0000000) satisfied.

> <CHARMm Energy>
15.98093

> <Potential Energy>
15.98093

> <RMS Gradient>
0.13583

> <Bond Energy>
13.98876

> <Angle Energy>
27.75661

> <STRBend>
1.19869

> <Dihedral Energy>
2.9337

> <OOPLane>
0.70003

> <Van der Waals Energy>
69.74602

> <Electrostatic Energy>
-100.34289

> <Hydrogen Bond Energy>
0

> <Solvation Free Energy>
0

> <HasGasteigerCharges>
true

> <REMARK99>
REMARK  99  MacroMolecule created from Mol2 file
REMARK  99  CHEMBL4465311
REMARK  99  PROTEIN
REMARK  99  GASTEIGER
REMARK  99
REMARK  99

$$$$
CHEMBL4740243
  SciTegic05292516403D

 51 54  0  0  0  0            999 V2000
   29.7366  -25.8573   -0.5961 C   0  0
   29.4112  -27.1928   -0.8341 C   0  0
   30.3977  -28.1821   -0.9627 C   0  0
   31.0723  -25.4711   -0.4424 C   0  0
   32.0757  -26.4469   -0.5454 C   0  0
   31.7293  -27.7708   -0.8031 C   0  0
   32.9381  -28.4286   -0.8510 N   0  0
   33.9419  -27.5095   -0.6204 C   0  0
   33.4336  -26.3046   -0.4378 N   0  0
   33.1216  -29.8405   -1.0901 C   0  0
   35.4029  -27.8355   -0.6213 C   0  0
   35.6241  -28.8170    0.3941 O   0  0
   36.9266  -29.1638    0.6333 C   0  0
   37.1237  -29.9828    1.7510 C   0  0
   38.4005  -30.4248    2.1048 C   0  0
   39.5010  -30.0433    1.3417 C   0  0
   39.3127  -29.2129    0.2317 C   0  0
   38.0281  -28.7857   -0.1338 C   0  0
   40.4543  -28.7960   -0.6121 C   0  0
   41.5319  -28.4180    0.1062 O   0  0
   40.3994  -28.7639   -1.8283 O   0  0
   28.0806  -27.4948   -1.0217 O   0  0
   27.4837  -28.3618   -0.1317 C   0  0
   27.8860  -28.5379    1.1877 C   0  0
   27.1636  -29.4205    1.9694 C   0  0
   26.0872  -30.1097    1.5315 N   0  0
   25.6967  -29.9125    0.2499 C   0  0
   26.3641  -29.0424   -0.6058 C   0  0
   24.4709  -30.6551   -0.2131 C   0  0
   23.2088  -29.8309   -0.0137 C   0  0
   28.9506  -25.1103   -0.5289 H   0  0
   30.1328  -29.2097   -1.1836 H   0  0
   31.3400  -24.4365   -0.2576 H   0  0
   34.0076  -29.9912   -1.7113 H   0  0
   32.2532  -30.2425   -1.6167 H   0  0
   33.2387  -30.3377   -0.1242 H   0  0
   35.6875  -28.2248   -1.6057 H   0  0
   35.9703  -26.9232   -0.4010 H   0  0
   36.2671  -30.2842    2.3517 H   0  0
   38.5333  -31.0744    2.9671 H   0  0
   40.4875  -30.4205    1.6001 H   0  0
   37.9313  -28.1659   -1.0212 H   0  0
   41.3675  -28.3292    1.0640 H   0  0
   28.7250  -28.0028    1.6154 H   0  0
   27.4348  -29.5982    3.0063 H   0  0
   26.0187  -28.8901   -1.6232 H   0  0
   24.5786  -30.9312   -1.2686 H   0  0
   24.3858  -31.5935    0.3478 H   0  0
   22.3314  -30.3959   -0.3436 H   0  0
   23.2474  -28.8987   -0.5875 H   0  0
   23.0688  -29.5700    1.0409 H   0  0
  1  2  2  0
  1 31  1  0
  2  3  1  0
  2 22  1  0
  3  6  2  0
  3 32  1  0
  4  1  1  0
  4 33  1  0
  5  4  2  0
  5  6  1  0
  6  7  1  0
  7  8  1  0
  7 10  1  0
  8  9  2  0
  8 11  1  0
  9  5  1  0
 10 34  1  0
 10 35  1  0
 10 36  1  0
 11 12  1  0
 11 37  1  0
 11 38  1  0
 12 13  1  0
 13 14  2  0
 14 15  1  0
 14 39  1  0
 15 16  2  0
 15 40  1  0
 16 17  1  0
 16 41  1  0
 17 18  2  0
 17 19  1  0
 18 13  1  0
 18 42  1  0
 19 20  1  0
 19 21  2  0
 20 43  1  0
 22 23  1  0
 23 24  2  0
 24 25  1  0
 24 44  1  0
 25 26  2  0
 25 45  1  0
 26 27  1  0
 27 28  2  0
 27 29  1  0
 28 23  1  0
 28 46  1  0
 29 30  1  0
 29 47  1  0
 29 48  1  0
 30 49  1  0
 30 50  1  0
 30 51  1  0
M  END
> <Name>
CHEMBL4740243

> <Clean Energy>
32.199001

> <chembl_id>
CHEMBL4740243

> <chembl_pref_name>
None

> <efficacy>
0.99

> <Forcefield>
MMFF

> <ForcefieldBase>
MMFF

> <ForcefieldFFML>
<?xml version="1.0" encoding="UTF-8"?>
<!DOCTYPE ffml SYSTEM "Ffml.dtd">
<ffml version="1.0">
<forcefield name="MMFF" derivedFrom="MMFF" base="MMFF">
<atomTypes>
<atomType
name="C100"
element="C"
mass="12.011"
annotation=""/>
<atomType
name="N101"
element="N"
mass="14.007"
annotation=""/>
<atomType
name="O102"
element="O"
mass="16"
annotation=""/>
<atomType
name="H103"
element="H"
mass="1.008"
annotation=""/>
</atomTypes>
<parameters>
</parameters>
</forcefield>
</ffml>

> <Initial Potential Energy>
193.37373

> <Initial RMS Gradient>
46.61362

> <Minimization Criteria>
CONJUG> Minimization exiting with gradient tolerance ( 0.0100000) satisfied.

> <CHARMm Energy>
55.4855

> <Potential Energy>
55.4855

> <RMS Gradient>
0.00919

> <Bond Energy>
4.40618

> <Angle Energy>
16.28172

> <STRBend>
0.29237

> <Dihedral Energy>
7.83934

> <OOPLane>
0.11333

> <Van der Waals Energy>
59.02756

> <Electrostatic Energy>
-32.475

> <Hydrogen Bond Energy>
0

> <Solvation Free Energy>
0

> <HasGasteigerCharges>
true

> <REMARK99>
REMARK  99  MacroMolecule created from Mol2 file
REMARK  99  CHEMBL4740243
REMARK  99  PROTEIN
REMARK  99  GASTEIGER
REMARK  99
REMARK  99

$$$$
CHEMBL4591405
  SciTegic05292516403D

 75 78  0  0  0  0            999 V2000
   26.9157  -13.2818    0.2383 N   0  0
   26.8409  -14.5387    0.5450 C   0  0
   27.8742  -15.2415    1.1434 N   0  0
   28.9333  -14.5123    1.6535 C   0  0
   29.1271  -13.1442    1.1073 C   0  0
   28.0987  -12.6148    0.4227 C   0  0
   28.1426  -11.2475   -0.2559 C   0  0
   27.8668  -11.3597   -1.7600 C   0  0
   27.1571  -10.2772    0.4010 C   0  0
   29.7106  -14.9446    2.5047 O   0  0
   30.4810  -12.5447    1.3618 C   0  0
   31.5025  -13.1780    0.4367 C   0  0
   32.6771  -12.4838    0.4961 O   0  0
   31.3246  -14.1792   -0.2507 O   0  0
   25.5463  -15.2825    0.2347 C   0  0
   24.4652  -14.4196   -0.4181 C   0  0
   23.2009  -15.2320   -0.6971 C   0  0
   22.1191  -14.3762   -1.3364 C   0  0
   27.7940  -16.6745    1.5287 C   0  0
   28.8790  -17.6168    0.9995 C   0  0
   29.3583  -18.6621    1.8170 C   0  0
   30.3710  -19.5504    1.3882 C   0  0
   30.9425  -19.4342    0.1165 C   0  0
   30.3921  -18.4432   -0.7301 C   0  0
   29.3816  -17.5523   -0.3018 C   0  0
   32.2619  -20.0515   -0.2084 C   0  0
   32.6009  -21.4114   -0.4480 C   0  0
   33.9593  -21.7292   -0.7392 C   0  0
   34.9705  -20.7676   -0.7581 C   0  0
   34.6543  -19.4499   -0.4967 C   0  0
   33.3298  -19.1061   -0.2308 C   0  0
   31.6529  -22.5678   -0.4731 C   0  0
   30.3633  -22.5390   -0.5531 N   0  0
   29.9441  -23.9242   -0.6141 O   0  0
   31.0843  -24.6905   -0.5697 C   0  0
   32.1217  -23.8420   -0.4416 N   0  0
   31.1523  -25.9112   -0.6427 O   0  0
   33.7029  -13.0903   -0.2954 C   0  0
   34.9856  -12.4406   -0.0077 C   0  0
   36.0506  -11.9364    0.2226 C   0  0
   37.3465  -11.3164    0.4984 C   0  0
   29.1374  -10.8020   -0.1655 H   0  0
   27.9858  -10.3848   -2.2451 H   0  0
   26.8487  -11.7087   -1.9649 H   0  0
   28.5670  -12.0560   -2.2346 H   0  0
   27.2397   -9.2819   -0.0492 H   0  0
   27.3624  -10.1764    1.4724 H   0  0
   26.1195  -10.6095    0.2844 H   0  0
   30.4875  -11.4635    1.2045 H   0  0
   30.7947  -12.7121    2.3982 H   0  0
   25.7882  -16.1209   -0.4294 H   0  0
   25.1584  -15.6948    1.1738 H   0  0
   24.2205  -13.5738    0.2364 H   0  0
   24.8441  -13.9972   -1.3571 H   0  0
   23.4366  -16.0706   -1.3628 H   0  0
   22.8170  -15.6574    0.2375 H   0  0
   21.2249  -14.9772   -1.5293 H   0  0
   22.4606  -13.9593   -2.2892 H   0  0
   21.8359  -13.5472   -0.6800 H   0  0
   27.8247  -16.6926    2.6264 H   0  0
   26.8355  -17.1103    1.2390 H   0  0
   28.9729  -18.7772    2.8294 H   0  0
   30.7540  -20.2855    2.0933 H   0  0
   30.8099  -18.3000   -1.7263 H   0  0
   29.0353  -16.7840   -0.9900 H   0  0
   34.2758  -22.7379   -0.9890 H   0  0
   35.9962  -21.0538   -0.9825 H   0  0
   35.4254  -18.6840   -0.5012 H   0  0
   33.1160  -18.0552   -0.0214 H   0  0
   33.0477  -24.2323   -0.3687 H   0  0
   33.7859  -14.1586   -0.0606 H   0  0
   33.4557  -12.9711   -1.3565 H   0  0
   37.9529  -11.9550    1.1478 H   0  0
   37.2178  -10.3506    0.9962 H   0  0
   37.9029  -11.1491   -0.4287 H   0  0
  1  2  2  0
  1  6  1  0
  2  3  1  0
  2 15  1  0
  3  4  1  0
  3 19  1  0
  4  5  1  0
  4 10  2  0
  5  6  2  0
  5 11  1  0
  6  7  1  0
  7  8  1  0
  7  9  1  0
  7 42  1  0
  8 43  1  0
  8 44  1  0
  8 45  1  0
  9 46  1  0
  9 47  1  0
  9 48  1  0
 11 12  1  0
 11 49  1  0
 11 50  1  0
 12 13  1  0
 12 14  2  0
 13 38  1  0
 15 16  1  0
 15 51  1  0
 15 52  1  0
 16 17  1  0
 16 53  1  0
 16 54  1  0
 17 18  1  0
 17 55  1  0
 17 56  1  0
 18 57  1  0
 18 58  1  0
 18 59  1  0
 19 20  1  0
 19 60  1  0
 19 61  1  0
 20 21  2  0
 21 22  1  0
 21 62  1  0
 22 23  2  0
 22 63  1  0
 23 24  1  0
 23 26  1  0
 24 25  2  0
 24 64  1  0
 25 20  1  0
 25 65  1  0
 26 27  2  0
 27 28  1  0
 27 32  1  0
 28 29  2  0
 28 66  1  0
 29 30  1  0
 29 67  1  0
 30 31  2  0
 30 68  1  0
 31 26  1  0
 31 69  1  0
 32 33  2  0
 33 34  1  0
 34 35  1  0
 35 36  1  0
 35 37  2  0
 36 32  1  0
 36 70  1  0
 38 39  1  0
 38 71  1  0
 38 72  1  0
 39 40  3  0
 40 41  1  0
 41 73  1  0
 41 74  1  0
 41 75  1  0
M  END
> <Name>
CHEMBL4591405

> <Clean Energy>
117.956001

> <chembl_id>
CHEMBL4591405

> <chembl_pref_name>
None

> <efficacy>
0.978157645

> <Forcefield>
MMFF

> <ForcefieldBase>
MMFF

> <ForcefieldFFML>
<?xml version="1.0" encoding="UTF-8"?>
<!DOCTYPE ffml SYSTEM "Ffml.dtd">
<ffml version="1.0">
<forcefield name="MMFF" derivedFrom="MMFF" base="MMFF">
<atomTypes>
<atomType
name="N100"
element="N"
mass="14.007"
annotation=""/>
<atomType
name="C101"
element="C"
mass="12.011"
annotation=""/>
<atomType
name="O102"
element="O"
mass="16"
annotation=""/>
<atomType
name="H103"
element="H"
mass="1.008"
annotation=""/>
</atomTypes>
<parameters>
</parameters>
</forcefield>
</ffml>

> <Initial Potential Energy>
397.70721

> <Initial RMS Gradient>
45.87357

> <Minimization Criteria>
STEEPD> Minimization exiting with gradient tolerance ( 3.0000000) satisfied.

> <CHARMm Energy>
-16.26902

> <Potential Energy>
-16.26902

> <RMS Gradient>
0.04056

> <Bond Energy>
12.78117

> <Angle Energy>
28.31423

> <STRBend>
1.36191

> <Dihedral Energy>
-0.34036

> <OOPLane>
0.67601

> <Van der Waals Energy>
68.50174

> <Electrostatic Energy>
-127.56372

> <Hydrogen Bond Energy>
0

> <Solvation Free Energy>
0

> <HasGasteigerCharges>
true

> <REMARK99>
REMARK  99  MacroMolecule created from Mol2 file
REMARK  99  CHEMBL4591405
REMARK  99  PROTEIN
REMARK  99  GASTEIGER
REMARK  99
REMARK  99

$$$$
CHEMBL4167731
  SciTegic05292516403D

 48 51  0  0  0  0            999 V2000
    1.0196  -26.3936    0.4246 C   0  0
    2.3834  -26.2367    0.6067 C   0  0
    3.0659  -25.1149    0.2770 N   0  0
    2.3358  -24.0913   -0.2392 C   0  0
    0.9576  -24.1556   -0.4703 C   0  0
    0.2965  -25.3405   -0.1247 C   0  0
    2.9681  -22.8950   -0.5818 O   0  0
    4.2548  -22.7243   -0.1292 C   0  0
    5.3038  -23.4538   -0.6993 C   0  0
    5.7714  -21.5410    1.3478 C   0  0
    4.4777  -21.7639    0.8593 C   0  0
    6.8307  -22.3051    0.8314 C   0  0
    6.5802  -23.2354   -0.1717 C   0  0
    7.8048  -23.8035   -0.4219 N   0  0
    8.7263  -23.2334    0.4308 C   0  0
    8.1604  -22.2967    1.1698 N   0  0
    8.0588  -24.8550   -1.3780 C   0  0
   10.1657  -23.6290    0.4729 C   0  0
   10.2032  -25.0250    0.7692 O   0  0
   11.3956  -25.6747    0.6243 C   0  0
   11.3680  -27.0280    0.9812 C   0  0
   12.5079  -27.8253    0.8674 C   0  0
   13.6882  -27.2767    0.3733 C   0  0
   13.7151  -25.9317   -0.0025 C   0  0
   12.5818  -25.1183    0.1502 C   0  0
   14.9678  -25.3823   -0.5633 C   0  0
   16.0706  -25.6311   -0.1128 O   0  0
   14.7533  -24.6235   -1.6604 O   0  0
    0.2375  -27.8542    0.8676 Cl  0  0
    0.2060  -22.9980   -1.0533 C   0  0
    2.9817  -27.0327    1.0396 H   0  0
   -0.7758  -25.4397   -0.2777 H   0  0
    5.1236  -24.1903   -1.4726 H   0  0
    5.9643  -20.8093    2.1239 H   0  0
    3.6424  -21.1963    1.2639 H   0  0
    9.0505  -24.7189   -1.8155 H   0  0
    7.3182  -24.8108   -2.1800 H   0  0
    7.9945  -25.8139   -0.8579 H   0  0
   10.6107  -23.4073   -0.5040 H   0  0
   10.6897  -23.0709    1.2567 H   0  0
   10.4468  -27.4642    1.3642 H   0  0
   12.4792  -28.8714    1.1644 H   0  0
   14.5796  -27.8934    0.2790 H   0  0
   12.6669  -24.0627   -0.0872 H   0  0
   13.8338  -24.6471   -1.9920 H   0  0
   -0.8552  -23.2342   -1.1845 H   0  0
    0.6109  -22.7382   -2.0368 H   0  0
    0.2746  -22.1288   -0.3913 H   0  0
  1  2  2  0
  1 29  1  0
  2  3  1  0
  2 31  1  0
  3  4  2  0
  4  5  1  0
  4  7  1  0
  5  6  2  0
  5 30  1  0
  6  1  1  0
  6 32  1  0
  7  8  1  0
  8  9  2  0
  9 13  1  0
  9 33  1  0
 10 11  2  0
 10 34  1  0
 11  8  1  0
 11 35  1  0
 12 10  1  0
 12 13  2  0
 13 14  1  0
 14 15  1  0
 14 17  1  0
 15 16  2  0
 15 18  1  0
 16 12  1  0
 17 36  1  0
 17 37  1  0
 17 38  1  0
 18 19  1  0
 18 39  1  0
 18 40  1  0
 19 20  1  0
 20 21  2  0
 21 22  1  0
 21 41  1  0
 22 23  2  0
 22 42  1  0
 23 24  1  0
 23 43  1  0
 24 25  2  0
 24 26  1  0
 25 20  1  0
 25 44  1  0
 26 27  2  0
 26 28  1  0
 28 45  1  0
 30 46  1  0
 30 47  1  0
 30 48  1  0
M  END
> <Name>
CHEMBL4167731

> <Clean Energy>
49.333801

> <chembl_id>
CHEMBL4167731

> <chembl_pref_name>
None

> <efficacy>
0.92

> <Forcefield>
MMFF

> <ForcefieldBase>
MMFF

> <ForcefieldFFML>
<?xml version="1.0" encoding="UTF-8"?>
<!DOCTYPE ffml SYSTEM "Ffml.dtd">
<ffml version="1.0">
<forcefield name="MMFF" derivedFrom="MMFF" base="MMFF">
<atomTypes>
<atomType
name="C100"
element="C"
mass="12.011"
annotation=""/>
<atomType
name="N101"
element="N"
mass="14.007"
annotation=""/>
<atomType
name="O102"
element="O"
mass="16"
annotation=""/>
<atomType
name="Cl103"
element="Cl"
mass="35.453"
annotation=""/>
<atomType
name="H104"
element="H"
mass="1.008"
annotation=""/>
</atomTypes>
<parameters>
</parameters>
</forcefield>
</ffml>

> <Initial Potential Energy>
204.71903

> <Initial RMS Gradient>
36.85912

> <Minimization Criteria>
STEEPD> Minimization exiting with gradient tolerance ( 3.0000000) satisfied.

> <CHARMm Energy>
73.96505

> <Potential Energy>
73.96505

> <RMS Gradient>
0.03737

> <Bond Energy>
4.51397

> <Angle Energy>
14.97752

> <STRBend>
0.33651

> <Dihedral Energy>
10.13835

> <OOPLane>
0.0861

> <Van der Waals Energy>
59.4729

> <Electrostatic Energy>
-15.5603

> <Hydrogen Bond Energy>
0

> <Solvation Free Energy>
0

> <HasGasteigerCharges>
true

> <REMARK99>
REMARK  99  MacroMolecule created from Mol2 file
REMARK  99  CHEMBL4167731
REMARK  99  PROTEIN
REMARK  99  GASTEIGER
REMARK  99
REMARK  99

$$$$
CHEMBL3597391
  SciTegic05292516403D

 58 61  0  0  0  0            999 V2000
   -2.0817    1.0418   -0.3022 C   0  0
   -2.0909   -0.3290   -0.5670 C   0  0
   -0.9093   -1.0483   -0.7863 C   0  0
   -0.8609    1.7248   -0.2332 C   0  0
    0.3509    1.0244   -0.4480 C   0  0
    0.2940   -0.3419   -0.7234 C   0  0
    1.5850   -0.7791   -0.9073 N   0  0
    2.4610    0.2593   -0.7404 C   0  0
    1.7351    1.3990   -0.4453 C   0  0
    2.2994    2.7604   -0.1719 C   0  0
    3.0649    2.8733    1.1313 C   0  0
    2.6966    2.0255    2.1193 O   0  0
    3.9418    3.7103    1.3107 O   0  0
   -3.3207    1.5998   -0.1183 O   0  0
   -3.3866    3.0265   -0.0445 C   0  0
   -4.8585    3.4323    0.0518 C   0  0
   -4.9563    4.8576    0.0808 O   0  0
   -6.2204    5.3914    0.1125 C   0  0
   -6.2699    6.7844    0.0176 C   0  0
   -7.4898    7.4546    0.0408 C   0  0
   -8.6745    6.7308    0.1552 C   0  0
   -8.6464    5.3380    0.2515 C   0  0
   -7.4155    4.6707    0.2350 C   0  0
   -9.8799    4.7543    0.3575 O   0  0
   -9.9231    3.3309    0.4408 C   0  0
  -11.3710    2.9023    0.4399 C   0  0
  -11.9549    2.3204    1.5708 C   0  0
  -13.2967    1.9293    1.5490 C   0  0
  -14.0776    2.1173    0.4060 C   0  0
  -13.5009    2.6960   -0.7241 C   0  0
  -12.1575    3.0866   -0.7060 C   0  0
  -15.3738    1.6961    0.5225 O   0  0
  -16.2269    1.9340   -0.5899 C   0  0
   -3.0412   -0.8577   -0.6136 H   0  0
   -0.9392   -2.1112   -1.0021 H   0  0
   -0.8188    2.7861   -0.0199 H   0  0
    1.8448   -1.7307   -1.1341 H   0  0
    3.5280    0.0973   -0.8452 H   0  0
    2.9882    3.0173   -0.9859 H   0  0
    1.5063    3.5149   -0.1540 H   0  0
    1.9703    1.4209    1.8672 H   0  0
   -2.8564    3.3924    0.8432 H   0  0
   -2.9430    3.4837   -0.9377 H   0  0
   -5.3971    3.0270   -0.8143 H   0  0
   -5.2839    2.9991    0.9657 H   0  0
   -5.3481    7.3534   -0.0730 H   0  0
   -7.5184    8.5382   -0.0312 H   0  0
   -9.6273    7.2536    0.1712 H   0  0
   -7.3819    3.5937    0.3255 H   0  0
   -9.4286    2.8703   -0.4238 H   0  0
   -9.4308    2.9942    1.3613 H   0  0
  -11.3738    2.1684    2.4773 H   0  0
  -13.7424    1.4789    2.4332 H   0  0
  -14.0660    2.8610   -1.6349 H   0  0
  -11.7221    3.5438   -1.5927 H   0  0
  -17.2260    1.5722   -0.3282 H   0  0
  -15.8912    1.3757   -1.4700 H   0  0
  -16.3068    3.0044   -0.8065 H   0  0
  1  2  2  0
  1 14  1  0
  2  3  1  0
  2 34  1  0
  3  6  2  0
  3 35  1  0
  4  1  1  0
  4 36  1  0
  5  4  2  0
  5  6  1  0
  6  7  1  0
  7  8  1  0
  7 37  1  0
  8  9  2  0
  8 38  1  0
  9  5  1  0
  9 10  1  0
 10 11  1  0
 10 39  1  0
 10 40  1  0
 11 12  1  0
 11 13  2  0
 12 41  1  0
 14 15  1  0
 15 16  1  0
 15 42  1  0
 15 43  1  0
 16 17  1  0
 16 44  1  0
 16 45  1  0
 17 18  1  0
 18 19  2  0
 19 20  1  0
 19 46  1  0
 20 21  2  0
 20 47  1  0
 21 22  1  0
 21 48  1  0
 22 23  2  0
 22 24  1  0
 23 18  1  0
 23 49  1  0
 24 25  1  0
 25 26  1  0
 25 50  1  0
 25 51  1  0
 26 27  2  0
 27 28  1  0
 27 52  1  0
 28 29  2  0
 28 53  1  0
 29 30  1  0
 29 32  1  0
 30 31  2  0
 30 54  1  0
 31 26  1  0
 31 55  1  0
 32 33  1  0
 33 56  1  0
 33 57  1  0
 33 58  1  0
M  END
> <Name>
CHEMBL3597391

> <Clean Energy>
25.288799

> <chembl_id>
CHEMBL3597391

> <chembl_pref_name>
None

> <efficacy>
0.934

> <Forcefield>
MMFF

> <ForcefieldBase>
MMFF

> <ForcefieldFFML>
<?xml version="1.0" encoding="UTF-8"?>
<!DOCTYPE ffml SYSTEM "Ffml.dtd">
<ffml version="1.0">
<forcefield name="MMFF" derivedFrom="MMFF" base="MMFF">
<atomTypes>
<atomType
name="C100"
element="C"
mass="12.011"
annotation=""/>
<atomType
name="N101"
element="N"
mass="14.007"
annotation=""/>
<atomType
name="O102"
element="O"
mass="16"
annotation=""/>
<atomType
name="H103"
element="H"
mass="1.008"
annotation=""/>
</atomTypes>
<parameters>
</parameters>
</forcefield>
</ffml>

> <Initial Potential Energy>
162.66905

> <Initial RMS Gradient>
29.82714

> <Minimization Criteria>
CONJUG> Minimization exiting with gradient tolerance ( 0.0100000) satisfied.

> <CHARMm Energy>
79.2165

> <Potential Energy>
79.2165

> <RMS Gradient>
0.00728

> <Bond Energy>
5.4985

> <Angle Energy>
29.29378

> <STRBend>
-0.56615

> <Dihedral Energy>
-1.97662

> <OOPLane>
0.03997

> <Van der Waals Energy>
66.70105

> <Electrostatic Energy>
-19.77402

> <Hydrogen Bond Energy>
0

> <Solvation Free Energy>
0

> <HasGasteigerCharges>
true

> <REMARK99>
REMARK  99  MacroMolecule created from Mol2 file
REMARK  99  CHEMBL3597391
REMARK  99  PROTEIN
REMARK  99  GASTEIGER
REMARK  99
REMARK  99

$$$$
CHEMBL345009
  SciTegic05292516403D

 84 86  0  0  0  0            999 V2000
    7.4766    0.7809   -0.4542 C   0  0
    0.6795    1.8307    0.5617 C   0  0
   -9.0812   -5.9077   -0.2245 C   0  0
   19.2375   -1.8943   -0.6741 C   0  0
    6.4936    1.4491   -0.6258 C   0  0
    1.7150    2.2139    0.0891 C   0  0
   -8.1154   -4.7166   -0.2877 C   0  0  2  0  0  0
   17.8041   -2.2256   -0.2364 C   0  0  2  0  0  0
    8.6416   -0.0045   -0.2493 C   0  0
   -0.5258    1.3385    1.1290 C   0  0
   -8.7511   -7.0829   -0.2644 O   0  0
   20.2376   -2.5842   -0.5609 O   0  0
   17.3947   -1.2537    0.8841 C   0  0
   -7.2014   -4.7410    0.9431 C   0  0
    9.6470    0.4336    0.5215 C   0  0
   -1.4021    0.6507    0.3843 C   0  0
    2.9647    2.6326   -0.4659 C   0  0
    5.3252    2.2495   -0.8226 C   0  0
   15.9461   -0.8313    0.7642 C   0  0
   -6.0168   -3.8046    0.8287 C   0  0
   19.3142   -0.6903   -1.2866 O   0  0
  -10.3786   -5.5138   -0.1190 O   0  0
    4.1052    1.8493   -0.2745 C   0  0
   13.2538   -0.0472    0.5156 C   0  0
   -3.8067   -2.0629    0.6159 C   0  0
   17.6505   -3.5587    0.2648 O   0  0
   -8.9362   -3.5242   -0.2769 O   0  0
   -4.8799   -4.1866    0.1084 C   0  0
   15.6176    0.4051    0.1977 C   0  0
   14.9158   -1.6765    1.1934 C   0  0
   -6.0358   -2.5419    1.4382 C   0  0
   -3.7858   -3.3223    0.0096 C   0  0
   14.2813    0.7910    0.0780 C   0  0
   13.5763   -1.2857    1.0717 C   0  0
   -4.9376   -1.6760    1.3331 C   0  0
   -2.6679   -1.3270    0.4393 O   0  0
   11.9957    0.4615    0.3423 O   0  0
    4.2666    4.2201   -1.7486 C   0  0
   -2.6729    0.0299    0.8853 C   0  0
   10.9031   -0.3399    0.7833 C   0  0
    3.0480    3.8179   -1.2011 C   0  0
    5.4036    3.4332   -1.5605 C   0  0
   17.6320   -4.5400   -0.7696 C   0  0
   -8.5559   -2.5971   -1.2978 C   0  0
   17.5131   -5.9072   -0.1254 C   0  0
   -9.4111   -1.3548   -1.1486 C   0  0
   -7.5629   -4.8029   -1.2316 H   0  0
   17.1627   -2.1014   -1.1195 H   0  0
    8.6906   -0.9709   -0.7420 H   0  0
   -0.6869    1.5274    2.1863 H   0  0
   17.5416   -1.7135    1.8706 H   0  0
   18.0149   -0.3483    0.8858 H   0  0
   -7.7769   -4.4807    1.8415 H   0  0
   -6.8166   -5.7544    1.1180 H   0  0
    9.5734    1.4065    1.0038 H   0  0
   -1.1977    0.4738   -0.6705 H   0  0
   20.2613   -0.6093   -1.5260 H   0  0
  -10.3827   -4.5271   -0.0958 H   0  0
    4.0450    0.9271    0.2994 H   0  0
   -4.8297   -5.1623   -0.3712 H   0  0
   16.3966    1.0792   -0.1521 H   0  0
   15.1558   -2.6468    1.6270 H   0  0
   -6.9108   -2.2242    2.0040 H   0  0
   -2.9012   -3.6318   -0.5440 H   0  0
   14.0375    1.7566   -0.3587 H   0  0
   12.8133   -1.9725    1.4224 H   0  0
   -4.9945   -0.7136    1.8303 H   0  0
    4.3338    5.1431   -2.3202 H   0  0
   -3.5193    0.5721    0.4481 H   0  0
   -2.7248    0.0653    1.9794 H   0  0
   10.8911   -1.2939    0.2426 H   0  0
   10.9779   -0.5247    1.8616 H   0  0
    2.1615    4.4285   -1.3525 H   0  0
    6.3522    3.7473   -1.9894 H   0  0
   16.7726   -4.3648   -1.4258 H   0  0
   18.5505   -4.4910   -1.3625 H   0  0
   -7.4983   -2.3343   -1.2033 H   0  0
   -8.7277   -3.0509   -2.2800 H   0  0
   17.4796   -6.6943   -0.8839 H   0  0
   16.6082   -5.9682    0.4882 H   0  0
   18.3627   -6.0939    0.5398 H   0  0
   -9.1674   -0.6180   -1.9189 H   0  0
   -9.2603   -0.9002   -0.1639 H   0  0
  -10.4741   -1.6068   -1.2230 H   0  0
  2  6  3  0
  3  7  1  0
  4  8  1  0
  5  1  3  0
  6 17  1  0
  7 14  1  0
  7 27  1  0
  7 47  1  0
  8 13  1  0
  8 26  1  0
  8 48  1  0
  9  1  1  0
  9 49  1  0
 10  2  1  0
 10 50  1  0
 11  3  2  0
 12  4  2  0
 13 19  1  0
 13 51  1  0
 13 52  1  0
 14 20  1  0
 14 53  1  0
 14 54  1  0
 15  9  2  0
 15 55  1  0
 16 10  2  0
 16 56  1  0
 17 23  2  0
 18  5  1  0
 19 29  1  0
 19 30  2  0
 20 31  2  0
 21  4  1  0
 21 57  1  0
 22  3  1  0
 22 58  1  0
 23 18  1  0
 23 59  1  0
 24 37  1  0
 25 36  1  0
 28 20  1  0
 28 32  2  0
 28 60  1  0
 29 33  2  0
 29 61  1  0
 30 34  1  0
 30 62  1  0
 31 35  1  0
 31 63  1  0
 32 25  1  0
 32 64  1  0
 33 24  1  0
 33 65  1  0
 34 24  2  0
 34 66  1  0
 35 25  2  0
 35 67  1  0
 36 39  1  0
 37 40  1  0
 38 42  1  0
 38 68  1  0
 39 16  1  0
 39 69  1  0
 39 70  1  0
 40 15  1  0
 40 71  1  0
 40 72  1  0
 41 17  1  0
 41 38  2  0
 41 73  1  0
 42 18  2  0
 42 74  1  0
 43 26  1  0
 43 75  1  0
 43 76  1  0
 44 27  1  0
 44 77  1  0
 44 78  1  0
 45 43  1  0
 45 79  1  0
 45 80  1  0
 45 81  1  0
 46 44  1  0
 46 82  1  0
 46 83  1  0
 46 84  1  0
M  END
> <Name>
CHEMBL345009

> <Clean Energy>
539.452026

> <chembl_id>
CHEMBL345009

> <chembl_pref_name>
None

> <efficacy>
1.02

> <Forcefield>
MMFF

> <ForcefieldBase>
MMFF

> <ForcefieldFFML>
<?xml version="1.0" encoding="UTF-8"?>
<!DOCTYPE ffml SYSTEM "Ffml.dtd">
<ffml version="1.0">
<forcefield name="MMFF" derivedFrom="MMFF" base="MMFF">
<atomTypes>
<atomType
name="C100"
element="C"
mass="12.011"
annotation=""/>
<atomType
name="O101"
element="O"
mass="16"
annotation=""/>
<atomType
name="H102"
element="H"
mass="1.008"
annotation=""/>
</atomTypes>
<parameters>
</parameters>
</forcefield>
</ffml>

> <Initial Potential Energy>
895.10072

> <Initial RMS Gradient>
97.13117

> <Minimization Criteria>
STEEPD> Minimization exiting with gradient tolerance ( 3.0000000) satisfied.

> <CHARMm Energy>
91.06583

> <Potential Energy>
91.06583

> <RMS Gradient>
0.14551

> <Bond Energy>
7.02731

> <Angle Energy>
21.63726

> <STRBend>
0.61374

> <Dihedral Energy>
-2.78776

> <OOPLane>
0.03751

> <Van der Waals Energy>
74.02735

> <Electrostatic Energy>
-9.48959

> <Hydrogen Bond Energy>
0

> <Solvation Free Energy>
0

> <HasGasteigerCharges>
true

> <REMARK99>
REMARK  99  MacroMolecule created from Mol2 file
REMARK  99  CHEMBL345009
REMARK  99  PROTEIN
REMARK  99  GASTEIGER
REMARK  99
REMARK  99

$$$$
CHEMBL4759515
  SciTegic05292516403D

 49 52  0  0  0  0            999 V2000
    5.9998  -17.9384    0.0606 C   0  0
    6.0653  -19.3132   -0.2039 C   0  0
    7.3009  -19.9170   -0.4717 C   0  0
    7.1572  -17.1504    0.0635 C   0  0
    8.3896  -17.7601   -0.2016 C   0  0
    8.4459  -19.1223   -0.4692 C   0  0
    9.7776  -19.3753   -0.6861 N   0  0
   10.4647  -18.1957   -0.4978 C   0  0
    9.6353  -17.2031   -0.2367 N   0  0
   10.3504  -20.6576   -1.0263 C   0  0
   11.9428  -18.0621   -0.5842 C   0  0
   12.5100  -19.0492    0.2811 O   0  0
   13.8703  -19.0749    0.3966 C   0  0
   14.3645  -20.1057    1.2044 C   0  0
   15.7361  -20.2577    1.4158 C   0  0
   16.6288  -19.3640    0.8305 C   0  0
   16.1340  -18.3202    0.0403 C   0  0
   14.7606  -18.1825   -0.1959 C   0  0
   17.0506  -17.3378   -0.5734 C   0  0
   17.9441  -16.8480    0.3113 O   0  0
   16.9766  -16.9812   -1.7345 O   0  0
    4.9765  -20.1647   -0.2386 O   0  0
    3.7731  -19.6640    0.1817 C   0  0
    3.4228  -19.7579    1.5226 C   0  0
    2.2085  -19.2184    1.8994 C   0  0
    1.3585  -18.6136    1.0403 N   0  0
    1.7259  -18.5713   -0.2598 C   0  0
    2.9089  -19.0933   -0.7417 C   0  0
    0.9081  -17.9606   -1.1889 O   0  0
   -0.3171  -17.4891   -0.6317 C   0  0
    7.3801  -21.2346   -0.7083 F   0  0
    5.0571  -17.4400    0.2684 H   0  0
    7.1113  -16.0855    0.2676 H   0  0
   11.2550  -20.5096   -1.6201 H   0  0
    9.6360  -21.2279   -1.6242 H   0  0
   10.5805  -21.1866   -0.0982 H   0  0
   12.2725  -18.2194   -1.6178 H   0  0
   12.2260  -17.0579   -0.2482 H   0  0
   13.6713  -20.8034    1.6707 H   0  0
   16.1003  -21.0759    2.0325 H   0  0
   17.6980  -19.4990    0.9759 H   0  0
   14.4289  -17.3657   -0.8304 H   0  0
   17.7944  -17.1207    1.2366 H   0  0
    4.0826  -20.2230    2.2455 H   0  0
    1.8762  -19.2531    2.9332 H   0  0
    3.1552  -19.0347   -1.7944 H   0  0
   -0.9035  -17.0483   -1.4435 H   0  0
   -0.1363  -16.7059    0.1124 H   0  0
   -0.9031  -18.3109   -0.2053 H   0  0
  1  2  2  0
  1 32  1  0
  2  3  1  0
  2 22  1  0
  3  6  2  0
  3 31  1  0
  4  1  1  0
  4 33  1  0
  5  4  2  0
  5  6  1  0
  6  7  1  0
  7  8  1  0
  7 10  1  0
  8  9  2  0
  8 11  1  0
  9  5  1  0
 10 34  1  0
 10 35  1  0
 10 36  1  0
 11 12  1  0
 11 37  1  0
 11 38  1  0
 12 13  1  0
 13 14  2  0
 14 15  1  0
 14 39  1  0
 15 16  2  0
 15 40  1  0
 16 17  1  0
 16 41  1  0
 17 18  2  0
 17 19  1  0
 18 13  1  0
 18 42  1  0
 19 20  1  0
 19 21  2  0
 20 43  1  0
 22 23  1  0
 23 24  2  0
 24 25  1  0
 24 44  1  0
 25 26  2  0
 25 45  1  0
 26 27  1  0
 27 28  2  0
 27 29  1  0
 28 23  1  0
 28 46  1  0
 29 30  1  0
 30 47  1  0
 30 48  1  0
 30 49  1  0
M  END
> <Name>
CHEMBL4759515

> <Clean Energy>
33.919399

> <chembl_id>
CHEMBL4759515

> <chembl_pref_name>
None

> <efficacy>
0.95

> <Forcefield>
MMFF

> <ForcefieldBase>
MMFF

> <ForcefieldFFML>
<?xml version="1.0" encoding="UTF-8"?>
<!DOCTYPE ffml SYSTEM "Ffml.dtd">
<ffml version="1.0">
<forcefield name="MMFF" derivedFrom="MMFF" base="MMFF">
<atomTypes>
<atomType
name="C100"
element="C"
mass="12.011"
annotation=""/>
<atomType
name="N101"
element="N"
mass="14.007"
annotation=""/>
<atomType
name="O102"
element="O"
mass="16"
annotation=""/>
<atomType
name="F103"
element="F"
mass="18.998"
annotation=""/>
<atomType
name="H104"
element="H"
mass="1.008"
annotation=""/>
</atomTypes>
<parameters>
</parameters>
</forcefield>
</ffml>

> <Initial Potential Energy>
178.10579

> <Initial RMS Gradient>
46.94851

> <Minimization Criteria>
STEEPD> Minimization exiting with gradient tolerance ( 3.0000000) satisfied.

> <CHARMm Energy>
40.19132

> <Potential Energy>
40.19132

> <RMS Gradient>
0.10338

> <Bond Energy>
3.58562

> <Angle Energy>
19.92307

> <STRBend>
0.32261

> <Dihedral Energy>
10.91855

> <OOPLane>
0.04817

> <Van der Waals Energy>
63.053

> <Electrostatic Energy>
-57.6597

> <Hydrogen Bond Energy>
0

> <Solvation Free Energy>
0

> <HasGasteigerCharges>
true

> <REMARK99>
REMARK  99  MacroMolecule created from Mol2 file
REMARK  99  CHEMBL4759515
REMARK  99  PROTEIN
REMARK  99  GASTEIGER
REMARK  99
REMARK  99

$$$$
CHEMBL3397710
  SciTegic05292516403D

 62 64  0  0  0  0            999 V2000
    1.4042   -3.2350   -2.6161 C   0  0
    2.6282   -2.9747   -1.8235 C   0  0
    3.0640   -4.0326   -0.8457 C   0  0
    1.9879   -4.3468    0.2006 C   0  0
    2.4881   -5.3788    1.2127 C   0  0
    1.4230   -5.7067    2.2460 C   0  0
    0.4344   -2.4947   -2.6356 O   0  0
    1.4598   -4.3879   -3.3166 O   0  0
    3.1810   -1.7606   -2.0192 C   0  0
    4.3973   -1.2440   -1.3672 C   0  0
    4.3758   -0.0533   -0.6033 C   0  0
    5.5756    0.4155   -0.0459 C   0  0
    6.7729   -0.2813   -0.2314 C   0  0
    6.7787   -1.4602   -0.9656 C   0  0
    5.6142   -1.9257   -1.5649 C   0  0
    3.1579    0.5793   -0.4541 O   0  0
    3.1504    1.7965    0.3038 C   0  0
    1.7818    2.4480    0.4345 C   0  0
    1.7121    3.8089    0.7841 C   0  0
    0.4815    4.4445    0.9898 C   0  0
   -0.7220    3.7397    0.8624 C   0  0
   -0.6523    2.3769    0.5181 C   0  0
    0.5828    1.7390    0.3076 C   0  0
   -2.0530    4.4321    1.1180 C   0  0
   -2.1287    5.6752    0.5594 F   0  0
   -3.1107    3.7298    0.6251 F   0  0
   -2.3045    4.6177    2.4466 F   0  0
    7.9406   -2.1451   -1.1722 O   0  0
    8.3822   -2.7916    0.0283 C   0  0
    9.8896   -2.8473    0.0218 C   0  0
   10.5601   -4.0780    0.0250 C   0  0
   11.9519   -4.1170    0.0286 C   0  0
   12.6800   -2.9293    0.0278 C   0  0
   12.0289   -1.6991    0.0323 C   0  0
   10.6382   -1.6581    0.0295 C   0  0
    3.3302   -4.9469   -1.3895 H   0  0
    3.9717   -3.7270   -0.3152 H   0  0
    1.7026   -3.4273    0.7268 H   0  0
    1.0853   -4.7311   -0.2899 H   0  0
    2.7805   -6.2988    0.6936 H   0  0
    3.3795   -4.9976    1.7240 H   0  0
    1.8033   -6.4422    2.9616 H   0  0
    0.5306   -6.1256    1.7700 H   0  0
    1.1278   -4.8116    2.8026 H   0  0
    2.3186   -4.8614   -3.3332 H   0  0
    2.7098   -1.0479   -2.6993 H   0  0
    5.6236    1.3284    0.5386 H   0  0
    7.6944    0.1067    0.1937 H   0  0
    5.6667   -2.8223   -2.1810 H   0  0
    3.5014    1.5933    1.3236 H   0  0
    3.8136    2.5193   -0.1894 H   0  0
    2.6270    4.3874    0.9080 H   0  0
    0.4646    5.5003    1.2551 H   0  0
   -1.5696    1.7970    0.4103 H   0  0
    0.5995    0.6810    0.0485 H   0  0
    8.0583   -2.2854    0.9476 H   0  0
    7.9576   -3.8030    0.0413 H   0  0
    9.9986   -5.0088    0.0173 H   0  0
   12.4791   -5.0688    0.0321 H   0  0
   13.7662   -2.9636    0.0266 H   0  0
   12.6126   -0.7800    0.0392 H   0  0
   10.1276   -0.6972    0.0208 H   0  0
  1  2  1  0
  1  7  2  0
  1  8  1  0
  2  3  1  0
  2  9  2  0
  3  4  1  0
  3 36  1  0
  3 37  1  0
  4  5  1  0
  4 38  1  0
  4 39  1  0
  5  6  1  0
  5 40  1  0
  5 41  1  0
  6 42  1  0
  6 43  1  0
  6 44  1  0
  8 45  1  0
  9 10  1  0
  9 46  1  0
 10 11  1  0
 10 15  2  0
 11 12  2  0
 11 16  1  0
 12 13  1  0
 12 47  1  0
 13 14  2  0
 13 48  1  0
 14 15  1  0
 14 28  1  0
 15 49  1  0
 16 17  1  0
 17 18  1  0
 17 50  1  0
 17 51  1  0
 18 19  1  0
 18 23  2  0
 19 20  2  0
 19 52  1  0
 20 21  1  0
 20 53  1  0
 21 22  2  0
 21 24  1  0
 22 23  1  0
 22 54  1  0
 23 55  1  0
 24 25  1  0
 24 26  1  0
 24 27  1  0
 28 29  1  0
 29 30  1  0
 29 56  1  0
 29 57  1  0
 30 31  1  0
 30 35  2  0
 31 32  2  0
 31 58  1  0
 32 33  1  0
 32 59  1  0
 33 34  2  0
 33 60  1  0
 34 35  1  0
 34 61  1  0
 35 62  1  0
M  END
> <Name>
CHEMBL3397710

> <Clean Energy>
21.442499

> <chembl_id>
CHEMBL3397710

> <chembl_pref_name>
None

> <efficacy>
1.025641026

> <Forcefield>
MMFF

> <ForcefieldBase>
MMFF

> <ForcefieldFFML>
<?xml version="1.0" encoding="UTF-8"?>
<!DOCTYPE ffml SYSTEM "Ffml.dtd">
<ffml version="1.0">
<forcefield name="MMFF" derivedFrom="MMFF" base="MMFF">
<atomTypes>
<atomType
name="C100"
element="C"
mass="12.011"
annotation=""/>
<atomType
name="O101"
element="O"
mass="16"
annotation=""/>
<atomType
name="F102"
element="F"
mass="18.998"
annotation=""/>
<atomType
name="H103"
element="H"
mass="1.008"
annotation=""/>
</atomTypes>
<parameters>
</parameters>
</forcefield>
</ffml>

> <Initial Potential Energy>
187.78798

> <Initial RMS Gradient>
27.8597

> <Minimization Criteria>
STEEPD> Minimization exiting with gradient tolerance ( 3.0000000) satisfied.

> <CHARMm Energy>
89.92682

> <Potential Energy>
89.92682

> <RMS Gradient>
0.11142

> <Bond Energy>
7.34445

> <Angle Energy>
13.46103

> <STRBend>
0.65257

> <Dihedral Energy>
10.52622

> <OOPLane>
0.1028

> <Van der Waals Energy>
65.42623

> <Electrostatic Energy>
-7.58648

> <Hydrogen Bond Energy>
0

> <Solvation Free Energy>
0

> <HasGasteigerCharges>
true

> <REMARK99>
REMARK  99  MacroMolecule created from Mol2 file
REMARK  99  CHEMBL3397710
REMARK  99  PROTEIN
REMARK  99  GASTEIGER
REMARK  99
REMARK  99

$$$$
CHEMBL4171153
  SciTegic05292516403D

 70 73  0  0  0  0            999 V2000
   33.4462   -3.6463    0.5035 C   0  0
   33.1528   -4.9509    0.9445 C   0  0
   34.1653   -5.7290    1.5202 C   0  0
   34.7405   -3.1168    0.6194 C   0  0
   35.7313   -3.9075    1.1830 C   0  0
   35.4402   -5.1996    1.6208 C   0  0
   36.8802   -5.9973    2.2713 S   0  0
   37.8742   -4.5715    1.9405 C   0  0
   37.0808   -3.5678    1.3880 N   0  0
   39.0751   -4.5187    2.1664 O   0  0
   37.6822   -2.2998    1.0310 C   0  0
   38.4962   -2.3683   -0.2659 C   0  0
   39.1387   -1.1006   -0.4632 O   0  0
   40.5040   -1.1805   -0.5185 C   0  0
   41.1740   -1.9340   -1.4811 C   0  0
   42.5726   -1.9265   -1.5228 C   0  0
   43.3112   -1.1528   -0.6156 C   0  0
   42.6233   -0.3944    0.3420 C   0  0
   41.2260   -0.3989    0.3805 C   0  0
   44.8273   -1.1233   -0.6789 C   0  0
   45.4895   -2.2955    0.0660 C   0  0  2  0  0  0
   46.9693   -1.9407    0.3170 C   0  0
   45.3042   -3.4759   -0.7246 O   0  0
   45.1614   -4.6507    0.0710 C   0  0
   45.0448   -5.8422   -0.8581 C   0  0
   47.8189   -2.8990   -0.1556 O   0  0
   47.3464   -0.9188    0.8830 O   0  0
   31.8130   -5.5416    0.8566 C   0  0
   31.0358   -5.4930   -0.2371 C   0  0
   29.7718   -6.2404   -0.3166 C   0  0
   28.6264   -5.6444   -0.8614 C   0  0
   27.4368   -6.3750   -0.9516 C   0  0
   27.3767   -7.6952   -0.5174 C   0  0
   28.5203   -8.2872    0.0045 C   0  0
   29.7102   -7.5767    0.0996 C   0  0
   28.5318   -9.5781    0.4415 O   0  0
   26.2980   -5.8166   -1.4668 O   0  0
   49.2132   -2.6170    0.0349 C   0  0
   50.0122   -3.7565   -0.5664 C   0  0
   32.6607   -3.0276    0.0734 H   0  0
   33.9641   -6.7377    1.8704 H   0  0
   34.9376   -2.1078    0.2701 H   0  0
   36.9329   -1.5034    0.9794 H   0  0
   38.3577   -2.0082    1.8464 H   0  0
   39.2061   -3.2040   -0.2245 H   0  0
   37.8308   -2.5459   -1.1183 H   0  0
   40.6222   -2.5135   -2.2145 H   0  0
   43.0894   -2.5182   -2.2771 H   0  0
   43.1696    0.2207    1.0540 H   0  0
   40.7029    0.2088    1.1133 H   0  0
   45.1305   -1.1290   -1.7346 H   0  0
   45.1683   -0.1609   -0.2762 H   0  0
   45.0237   -2.4254    1.0519 H   0  0
   46.0304   -4.7720    0.7264 H   0  0
   44.2572   -4.5703    0.6844 H   0  0
   44.9280   -6.7697   -0.2906 H   0  0
   45.9341   -5.9247   -1.4917 H   0  0
   44.1860   -5.7264   -1.5275 H   0  0
   31.4996   -6.1085    1.7322 H   0  0
   31.3351   -4.9477   -1.1279 H   0  0
   28.6854   -4.6132   -1.1981 H   0  0
   26.4437   -8.2409   -0.5954 H   0  0
   30.5924   -8.0768    0.4927 H   0  0
   27.6448   -9.9554    0.3117 H   0  0
   26.5173   -4.8931   -1.6792 H   0  0
   49.4721   -1.6776   -0.4662 H   0  0
   49.4285   -2.5376    1.1062 H   0  0
   51.0856   -3.5883   -0.4424 H   0  0
   49.7916   -3.8609   -1.6339 H   0  0
   49.7455   -4.7066   -0.0918 H   0  0
  1  2  2  0
  1 40  1  0
  2  3  1  0
  2 28  1  0
  3  6  2  0
  3 41  1  0
  4  1  1  0
  4 42  1  0
  5  4  2  0
  5  6  1  0
  6  7  1  0
  7  8  1  0
  8  9  1  0
  8 10  2  0
  9  5  1  0
  9 11  1  0
 11 12  1  0
 11 43  1  0
 11 44  1  0
 12 13  1  0
 12 45  1  0
 12 46  1  0
 13 14  1  0
 14 15  2  0
 15 16  1  0
 15 47  1  0
 16 17  2  0
 16 48  1  0
 17 18  1  0
 17 20  1  0
 18 19  2  0
 18 49  1  0
 19 14  1  0
 19 50  1  0
 20 21  1  0
 20 51  1  0
 20 52  1  0
 21 22  1  0
 21 23  1  0
 21 53  1  0
 22 26  1  0
 22 27  2  0
 23 24  1  0
 24 25  1  0
 24 54  1  0
 24 55  1  0
 25 56  1  0
 25 57  1  0
 25 58  1  0
 26 38  1  0
 28 29  2  0
 28 59  1  0
 29 30  1  0
 29 60  1  0
 30 31  2  0
 31 32  1  0
 31 61  1  0
 32 33  2  0
 32 37  1  0
 33 34  1  0
 33 62  1  0
 34 35  2  0
 34 36  1  0
 35 30  1  0
 35 63  1  0
 36 64  1  0
 37 65  1  0
 38 39  1  0
 38 66  1  0
 38 67  1  0
 39 68  1  0
 39 69  1  0
 39 70  1  0
M  END
> <Name>
CHEMBL4171153

> <Clean Energy>
51.089199

> <chembl_id>
CHEMBL4171153

> <chembl_pref_name>
None

> <efficacy>
1.39

> <Forcefield>
MMFF

> <ForcefieldBase>
MMFF

> <ForcefieldFFML>
<?xml version="1.0" encoding="UTF-8"?>
<!DOCTYPE ffml SYSTEM "Ffml.dtd">
<ffml version="1.0">
<forcefield name="MMFF" derivedFrom="MMFF" base="MMFF">
<atomTypes>
<atomType
name="C100"
element="C"
mass="12.011"
annotation=""/>
<atomType
name="S101"
element="S"
mass="32.066"
annotation=""/>
<atomType
name="N102"
element="N"
mass="14.007"
annotation=""/>
<atomType
name="O103"
element="O"
mass="16"
annotation=""/>
<atomType
name="H104"
element="H"
mass="1.008"
annotation=""/>
</atomTypes>
<parameters>
</parameters>
</forcefield>
</ffml>

> <Initial Potential Energy>
193.95651

> <Initial RMS Gradient>
28.73028

> <Minimization Criteria>
STEEPD> Minimization exiting with gradient tolerance ( 3.0000000) satisfied.

> <CHARMm Energy>
52.30318

> <Potential Energy>
52.30318

> <RMS Gradient>
0.02748

> <Bond Energy>
6.6723

> <Angle Energy>
19.33287

> <STRBend>
0.24766

> <Dihedral Energy>
9.69325

> <OOPLane>
0.09548

> <Van der Waals Energy>
68.69027

> <Electrostatic Energy>
-52.42864

> <Hydrogen Bond Energy>
0

> <Solvation Free Energy>
0

> <HasGasteigerCharges>
true

> <REMARK99>
REMARK  99  MacroMolecule created from Mol2 file
REMARK  99  CHEMBL4171153
REMARK  99  PROTEIN
REMARK  99  GASTEIGER
REMARK  99
REMARK  99

$$$$
CHEMBL3335657
  SciTegic05292516403D

 59 61  0  0  0  0            999 V2000
    5.7650  -11.9247    0.1689 C   0  0
    5.6240  -13.2907    0.3912 C   0  0
    6.7394  -14.1367    0.3378 C   0  0
    8.0193  -13.6341    0.0667 C   0  0
    8.1469  -12.2433   -0.1375 C   0  0
    7.0257  -11.3988   -0.1001 C   0  0
    9.4484  -11.5834   -0.4023 C   0  0
   10.4185  -11.8226    0.5551 N   0  0
    9.5775  -10.9589   -1.4476 O   0  0
   11.6921  -11.2094    0.6188 C   0  0
    9.1626  -14.4736   -0.0475 N   0  0
    9.2366  -15.8317    0.2226 C   0  0
   10.5589  -16.4832   -0.0346 C   0  0
    8.3372  -16.5194    0.6930 O   0  0
   10.8524  -17.6676    0.6496 C   0  0
   12.0773  -18.3151    0.4595 C   0  0
   13.0507  -17.8009   -0.4168 C   0  0
   12.7293  -16.6269   -1.1185 C   0  0
   11.4983  -15.9779   -0.9381 C   0  0
   14.3923  -18.5365   -0.5926 C   0  0
   14.1358  -19.9089   -1.2486 C   0  0
   15.4046  -17.7773   -1.4803 C   0  0
   15.0688  -18.7450    0.7812 C   0  0
   12.7213  -11.9744    1.1824 C   0  0
   14.0268  -11.4684    1.2617 C   0  0
   14.3016  -10.1658    0.8365 C   0  0
   13.2708   -9.3786    0.3167 C   0  0
   11.9700   -9.8941    0.1993 C   0  0
   15.0718  -12.3351    1.8573 C   0  0
   16.2858  -12.1995    1.2871 O   0  0
   14.8231  -13.1275    2.7490 O   0  0
   10.9240   -9.0655   -0.1181 O   0  0
   11.1395   -8.2661   -1.2796 C   0  0
    4.8952  -11.2734    0.2041 H   0  0
    4.6402  -13.7097    0.5981 H   0  0
    6.5591  -15.1964    0.4926 H   0  0
    7.1387  -10.3303   -0.2768 H   0  0
   10.2221  -12.5314    1.2543 H   0  0
   10.0106  -14.0167   -0.3575 H   0  0
   10.1284  -18.1011    1.3385 H   0  0
   12.2570  -19.2401    1.0077 H   0  0
   13.4220  -16.1900   -1.8333 H   0  0
   11.2958  -15.0990   -1.5432 H   0  0
   15.0742  -20.4533   -1.4064 H   0  0
   13.6481  -19.7949   -2.2241 H   0  0
   13.4914  -20.5458   -0.6326 H   0  0
   16.3536  -18.3222   -1.5519 H   0  0
   15.6296  -16.7842   -1.0732 H   0  0
   15.0319  -17.6506   -2.5035 H   0  0
   16.0476  -19.2268    0.6705 H   0  0
   14.4761  -19.3822    1.4459 H   0  0
   15.2238  -17.7875    1.2930 H   0  0
   12.5261  -12.9838    1.5413 H   0  0
   15.2898   -9.7274    0.9615 H   0  0
   13.4809   -8.3407    0.0651 H   0  0
   16.3002  -11.6672    0.4703 H   0  0
   10.1606   -7.9562   -1.6590 H   0  0
   11.6485   -8.8252   -2.0731 H   0  0
   11.7002   -7.3626   -1.0224 H   0  0
  1  2  2  0
  1 34  1  0
  2  3  1  0
  2 35  1  0
  3  4  2  0
  3 36  1  0
  4  5  1  0
  4 11  1  0
  5  6  2  0
  5  7  1  0
  6  1  1  0
  6 37  1  0
  7  8  1  0
  7  9  2  0
  8 10  1  0
  8 38  1  0
 10 24  2  0
 11 12  1  0
 11 39  1  0
 12 13  1  0
 12 14  2  0
 13 15  2  0
 15 16  1  0
 15 40  1  0
 16 17  2  0
 16 41  1  0
 17 18  1  0
 17 20  1  0
 18 19  2  0
 18 42  1  0
 19 13  1  0
 19 43  1  0
 20 21  1  0
 20 22  1  0
 20 23  1  0
 21 44  1  0
 21 45  1  0
 21 46  1  0
 22 47  1  0
 22 48  1  0
 22 49  1  0
 23 50  1  0
 23 51  1  0
 23 52  1  0
 24 25  1  0
 24 53  1  0
 25 26  2  0
 25 29  1  0
 26 27  1  0
 26 54  1  0
 27 28  2  0
 27 55  1  0
 28 10  1  0
 28 32  1  0
 29 30  1  0
 29 31  2  0
 30 56  1  0
 32 33  1  0
 33 57  1  0
 33 58  1  0
 33 59  1  0
M  END
> <Name>
CHEMBL3335657

> <Clean Energy>
16.4671

> <chembl_id>
CHEMBL3335657

> <chembl_pref_name>
None

> <efficacy>
1.462488129

> <Forcefield>
MMFF

> <ForcefieldBase>
MMFF

> <ForcefieldFFML>
<?xml version="1.0" encoding="UTF-8"?>
<!DOCTYPE ffml SYSTEM "Ffml.dtd">
<ffml version="1.0">
<forcefield name="MMFF" derivedFrom="MMFF" base="MMFF">
<atomTypes>
<atomType
name="C100"
element="C"
mass="12.011"
annotation=""/>
<atomType
name="N101"
element="N"
mass="14.007"
annotation=""/>
<atomType
name="O102"
element="O"
mass="16"
annotation=""/>
<atomType
name="H103"
element="H"
mass="1.008"
annotation=""/>
</atomTypes>
<parameters>
</parameters>
</forcefield>
</ffml>

> <Initial Potential Energy>
252.01108

> <Initial RMS Gradient>
49.00073

> <Minimization Criteria>
STEEPD> Minimization exiting with gradient tolerance ( 3.0000000) satisfied.

> <CHARMm Energy>
102.25676

> <Potential Energy>
102.25676

> <RMS Gradient>
0.12737

> <Bond Energy>
9.07351

> <Angle Energy>
17.00543

> <STRBend>
2.32393

> <Dihedral Energy>
25.62294

> <OOPLane>
0.49735

> <Van der Waals Energy>
77.2232

> <Electrostatic Energy>
-29.4896

> <Hydrogen Bond Energy>
0

> <Solvation Free Energy>
0

> <HasGasteigerCharges>
true

> <REMARK99>
REMARK  99  MacroMolecule created from Mol2 file
REMARK  99  CHEMBL3335657
REMARK  99  PROTEIN
REMARK  99  GASTEIGER
REMARK  99
REMARK  99

$$$$
CHEMBL4521388
  SciTegic05292516403D

 70 73  0  0  0  0            999 V2000
   14.4347   -0.4443    0.0680 N   0  0
   14.3772   -1.6889    0.4271 C   0  0
   15.4254   -2.3623    1.0365 N   0  0
   16.4988   -1.6128    1.4854 C   0  0
   16.6708   -0.2703    0.8779 C   0  0
   15.6193    0.2277    0.2080 C   0  0
   15.6345    1.5546   -0.5035 C   0  0
   17.2986   -2.0068    2.3344 O   0  0
   18.0160    0.3630    1.0838 C   0  0
   19.0750   -0.3556    0.2662 C   0  0
   20.2564    0.3295    0.3565 O   0  0
   18.9172   -1.3953   -0.3652 O   0  0
   13.0817   -2.4546    0.1726 C   0  0
   11.9890   -1.6361   -0.5170 C   0  0
   10.7294   -2.4718   -0.7445 C   0  0
    9.6358   -1.6580   -1.4175 C   0  0
   15.3558   -3.7721    1.4963 C   0  0
   16.4058   -4.7566    0.9736 C   0  0
   16.8705   -5.7914    1.8136 C   0  0
   17.8567   -6.7148    1.3975 C   0  0
   18.4146   -6.6474    0.1162 C   0  0
   17.8765   -5.6673   -0.7506 C   0  0
   16.8921   -4.7410   -0.3351 C   0  0
   19.7127   -7.3092   -0.2083 C   0  0
   20.0083   -8.6847   -0.4141 C   0  0
   21.3508   -9.0576   -0.7135 C   0  0
   22.3903   -8.1286   -0.7702 C   0  0
   22.1177   -6.7940   -0.5417 C   0  0
   20.8081   -6.3995   -0.2701 C   0  0
   19.0229   -9.8071   -0.3988 C   0  0
   17.7374   -9.7327   -0.4953 N   0  0
   17.2716  -11.1046   -0.5091 O   0  0
   18.3856  -11.9058   -0.4233 C   0  0
   19.4495  -11.0912   -0.3106 N   0  0
   18.4127  -13.1300   -0.4553 O   0  0
   21.3766   -0.2890   -0.3057 C   0  0
   21.9794   -1.3631    0.5939 C   0  0
   22.3937    0.8117   -0.5837 C   0  0
   16.6416    1.9054   -0.7413 H   0  0
   15.1339    2.3138    0.1061 H   0  0
   15.1019    1.4802   -1.4588 H   0  0
   18.0165    1.4178    0.7956 H   0  0
   18.3011    0.3191    2.1410 H   0  0
   13.3207   -3.3290   -0.4446 H   0  0
   12.7051   -2.8135    1.1379 H   0  0
   11.7416   -0.7595    0.0946 H   0  0
   12.3582   -1.2602   -1.4793 H   0  0
   10.9670   -3.3410   -1.3686 H   0  0
   10.3562   -2.8522    0.2134 H   0  0
    8.7455   -2.2750   -1.5734 H   0  0
    9.9667   -1.2861   -2.3925 H   0  0
    9.3504   -0.7995   -0.8011 H   0  0
   15.4340   -3.7353    2.5912 H   0  0
   14.3819   -4.2126    1.2732 H   0  0
   16.5001   -5.8657    2.8352 H   0  0
   18.2366   -7.4344    2.1194 H   0  0
   18.2848   -5.5613   -1.7555 H   0  0
   16.5570   -3.9829   -1.0400 H   0  0
   21.6288  -10.0843   -0.9413 H   0  0
   23.4037   -8.4522   -0.9996 H   0  0
   22.9113   -6.0524   -0.5769 H   0  0
   20.6296   -5.3368   -0.0887 H   0  0
   20.3647  -11.5003   -0.2120 H   0  0
   21.0661   -0.7208   -1.2651 H   0  0
   22.8654   -1.8120    0.1347 H   0  0
   21.2556   -2.1601    0.7928 H   0  0
   22.2606   -0.9456    1.5669 H   0  0
   23.2793    0.4168   -1.0906 H   0  0
   22.7081    1.3012    0.3448 H   0  0
   21.9489    1.5898   -1.2138 H   0  0
  1  2  2  0
  1  6  1  0
  2  3  1  0
  2 13  1  0
  3  4  1  0
  3 17  1  0
  4  5  1  0
  4  8  2  0
  5  6  2  0
  5  9  1  0
  6  7  1  0
  7 39  1  0
  7 40  1  0
  7 41  1  0
  9 10  1  0
  9 42  1  0
  9 43  1  0
 10 11  1  0
 10 12  2  0
 11 36  1  0
 13 14  1  0
 13 44  1  0
 13 45  1  0
 14 15  1  0
 14 46  1  0
 14 47  1  0
 15 16  1  0
 15 48  1  0
 15 49  1  0
 16 50  1  0
 16 51  1  0
 16 52  1  0
 17 18  1  0
 17 53  1  0
 17 54  1  0
 18 19  2  0
 19 20  1  0
 19 55  1  0
 20 21  2  0
 20 56  1  0
 21 22  1  0
 21 24  1  0
 22 23  2  0
 22 57  1  0
 23 18  1  0
 23 58  1  0
 24 25  2  0
 25 26  1  0
 25 30  1  0
 26 27  2  0
 26 59  1  0
 27 28  1  0
 27 60  1  0
 28 29  2  0
 28 61  1  0
 29 24  1  0
 29 62  1  0
 30 31  2  0
 31 32  1  0
 32 33  1  0
 33 34  1  0
 33 35  2  0
 34 30  1  0
 34 63  1  0
 36 37  1  0
 36 38  1  0
 36 64  1  0
 37 65  1  0
 37 66  1  0
 37 67  1  0
 38 68  1  0
 38 69  1  0
 38 70  1  0
M  END
> <Name>
CHEMBL4521388

> <Clean Energy>
44.4272

> <chembl_id>
CHEMBL4521388

> <chembl_pref_name>
None

> <efficacy>
1.082621083

> <Forcefield>
MMFF

> <ForcefieldBase>
MMFF

> <ForcefieldFFML>
<?xml version="1.0" encoding="UTF-8"?>
<!DOCTYPE ffml SYSTEM "Ffml.dtd">
<ffml version="1.0">
<forcefield name="MMFF" derivedFrom="MMFF" base="MMFF">
<atomTypes>
<atomType
name="N100"
element="N"
mass="14.007"
annotation=""/>
<atomType
name="C101"
element="C"
mass="12.011"
annotation=""/>
<atomType
name="O102"
element="O"
mass="16"
annotation=""/>
<atomType
name="H103"
element="H"
mass="1.008"
annotation=""/>
</atomTypes>
<parameters>
</parameters>
</forcefield>
</ffml>

> <Initial Potential Energy>
124.7194

> <Initial RMS Gradient>
25.72085

> <Minimization Criteria>
STEEPD> Minimization exiting with gradient tolerance ( 3.0000000) satisfied.

> <CHARMm Energy>
-7.74366

> <Potential Energy>
-7.74366

> <RMS Gradient>
0.04425

> <Bond Energy>
12.29012

> <Angle Energy>
27.92809

> <STRBend>
1.35927

> <Dihedral Energy>
0.26643

> <OOPLane>
0.66217

> <Van der Waals Energy>
66.02265

> <Electrostatic Energy>
-116.2724

> <Hydrogen Bond Energy>
0

> <Solvation Free Energy>
0

> <HasGasteigerCharges>
true

> <REMARK99>
REMARK  99  MacroMolecule created from Mol2 file
REMARK  99  CHEMBL4521388
REMARK  99  PROTEIN
REMARK  99  GASTEIGER
REMARK  99
REMARK  99

$$$$
CHEMBL3597395
  SciTegic05292516403D

 71 75  0  0  0  0            999 V2000
   -1.7680    1.0444   -0.4733 C   0  0
   -1.7464   -0.3499   -0.4869 C   0  0
   -0.5709   -1.0704   -0.7410 C   0  0
   -0.5838    1.7509   -0.7038 C   0  0
    0.6214    1.0512   -0.9658 C   0  0
    0.6061   -0.3485   -0.9816 C   0  0
    1.8923   -0.7683   -1.2641 N   0  0
    2.7083    0.3224   -1.4390 C   0  0
    1.9638    1.4686   -1.2391 C   0  0
    2.4782    2.8739   -1.2992 C   0  0
    3.4416    3.2383   -0.1875 C   0  0
    3.2984    2.5645    0.9770 O   0  0
    4.2812    4.1230   -0.3080 O   0  0
   -2.9961    1.5980   -0.2203 O   0  0
   -3.1177    3.0210   -0.3258 C   0  0
   -4.5852    3.3968   -0.0981 C   0  0
   -4.7423    4.8152   -0.2069 O   0  0
   -6.0096    5.3190   -0.0573 C   0  0
   -6.1031    6.7069   -0.1917 C   0  0
   -7.3284    7.3531   -0.0567 C   0  0
   -8.4760    6.6080    0.2028 C   0  0
   -8.4054    5.2189    0.3287 C   0  0
   -7.1667    4.5766    0.2096 C   0  0
    2.3408   -2.1505   -1.4232 C   0  0
    3.0369   -2.6581   -0.1850 C   0  0
    4.4332   -2.5865   -0.0731 C   0  0
    5.0742   -3.0381    1.0808 C   0  0
    4.3309   -3.5677    2.1331 C   0  0
    2.9444   -3.6448    2.0353 C   0  0
    2.2995   -3.1896    0.8843 C   0  0
   -9.6084    4.6140    0.5751 O   0  0
   -9.6427    3.1866    0.5366 C   0  0
  -11.0803    2.7224    0.6223 C   0  0
  -11.4391    1.6501    1.4490 C   0  0
  -12.7641    1.2044    1.4965 C   0  0
  -13.7508    1.8158    0.7201 C   0  0
  -13.3993    2.8752   -0.1151 C   0  0
  -12.0737    3.3209   -0.1662 C   0  0
  -15.0036    1.2860    0.8640 O   0  0
  -16.0540    1.9211    0.1459 C   0  0
   -2.6670   -0.9008   -0.3028 H   0  0
   -0.5919   -2.1545   -0.7529 H   0  0
   -0.5657    2.8343   -0.6943 H   0  0
    3.7585    0.1939   -1.6772 H   0  0
    3.0043    3.0061   -2.2527 H   0  0
    1.6543    3.5939   -1.2696 H   0  0
    2.5913    1.8880    0.9584 H   0  0
   -2.4973    3.5171    0.4304 H   0  0
   -2.8082    3.3648   -1.3205 H   0  0
   -5.2003    2.8842   -0.8485 H   0  0
   -4.8892    3.0544    0.8991 H   0  0
   -5.2087    7.2896   -0.3987 H   0  0
   -7.3905    8.4333   -0.1549 H   0  0
   -9.4341    7.1108    0.3057 H   0  0
   -7.1002    3.5047    0.3326 H   0  0
    1.4792   -2.7775   -1.6753 H   0  0
    3.0117   -2.1782   -2.2903 H   0  0
    5.0376   -2.1803   -0.8819 H   0  0
    6.1574   -2.9803    1.1586 H   0  0
    4.8354   -3.9237    3.0286 H   0  0
    2.3666   -4.0582    2.8579 H   0  0
    1.2151   -3.2491    0.8322 H   0  0
   -9.2220    2.8086   -0.4036 H   0  0
   -9.0738    2.7911    1.3863 H   0  0
  -10.6944    1.1521    2.0656 H   0  0
  -13.0333    0.3734    2.1459 H   0  0
  -14.1281    3.3776   -0.7418 H   0  0
  -11.8197    4.1488   -0.8259 H   0  0
  -16.9877    1.4070    0.3946 H   0  0
  -15.9024    1.8321   -0.9349 H   0  0
  -16.1615    2.9690    0.4456 H   0  0
  1  2  2  0
  1 14  1  0
  2  3  1  0
  2 41  1  0
  3  6  2  0
  3 42  1  0
  4  1  1  0
  4 43  1  0
  5  4  2  0
  5  6  1  0
  6  7  1  0
  7  8  1  0
  7 24  1  0
  8  9  2  0
  8 44  1  0
  9  5  1  0
  9 10  1  0
 10 11  1  0
 10 45  1  0
 10 46  1  0
 11 12  1  0
 11 13  2  0
 12 47  1  0
 14 15  1  0
 15 16  1  0
 15 48  1  0
 15 49  1  0
 16 17  1  0
 16 50  1  0
 16 51  1  0
 17 18  1  0
 18 19  2  0
 19 20  1  0
 19 52  1  0
 20 21  2  0
 20 53  1  0
 21 22  1  0
 21 54  1  0
 22 23  2  0
 22 31  1  0
 23 18  1  0
 23 55  1  0
 24 25  1  0
 24 56  1  0
 24 57  1  0
 25 26  2  0
 26 27  1  0
 26 58  1  0
 27 28  2  0
 27 59  1  0
 28 29  1  0
 28 60  1  0
 29 30  2  0
 29 61  1  0
 30 25  1  0
 30 62  1  0
 31 32  1  0
 32 33  1  0
 32 63  1  0
 32 64  1  0
 33 34  2  0
 34 35  1  0
 34 65  1  0
 35 36  2  0
 35 66  1  0
 36 37  1  0
 36 39  1  0
 37 38  2  0
 37 67  1  0
 38 33  1  0
 38 68  1  0
 39 40  1  0
 40 69  1  0
 40 70  1  0
 40 71  1  0
M  END
> <Name>
CHEMBL3597395

> <Clean Energy>
33.090599

> <chembl_id>
CHEMBL3597395

> <chembl_pref_name>
None

> <efficacy>
0.909

> <Forcefield>
MMFF

> <ForcefieldBase>
MMFF

> <ForcefieldFFML>
<?xml version="1.0" encoding="UTF-8"?>
<!DOCTYPE ffml SYSTEM "Ffml.dtd">
<ffml version="1.0">
<forcefield name="MMFF" derivedFrom="MMFF" base="MMFF">
<atomTypes>
<atomType
name="C100"
element="C"
mass="12.011"
annotation=""/>
<atomType
name="N101"
element="N"
mass="14.007"
annotation=""/>
<atomType
name="O102"
element="O"
mass="16"
annotation=""/>
<atomType
name="H103"
element="H"
mass="1.008"
annotation=""/>
</atomTypes>
<parameters>
</parameters>
</forcefield>
</ffml>

> <Initial Potential Energy>
255.94563

> <Initial RMS Gradient>
33.10851

> <Minimization Criteria>
STEEPD> Minimization exiting with gradient tolerance ( 3.0000000) satisfied.

> <CHARMm Energy>
113.7517

> <Potential Energy>
113.7517

> <RMS Gradient>
0.08072

> <Bond Energy>
7.53762

> <Angle Energy>
30.93046

> <STRBend>
-0.28857

> <Dihedral Energy>
-2.00212

> <OOPLane>
0.06085

> <Van der Waals Energy>
83.40422

> <Electrostatic Energy>
-5.89076

> <Hydrogen Bond Energy>
0

> <Solvation Free Energy>
0

> <HasGasteigerCharges>
true

> <REMARK99>
REMARK  99  MacroMolecule created from Mol2 file
REMARK  99  CHEMBL3597395
REMARK  99  PROTEIN
REMARK  99  GASTEIGER
REMARK  99
REMARK  99

$$$$
CHEMBL3318038
  SciTegic05292516403D

 59 61  0  0  0  0            999 V2000
   -2.1072  -12.1766    0.1784 C   0  0
   -2.2541  -13.4581    0.6575 C   0  0
   -1.2233  -14.3221    0.3772 C   0  0
   -0.1123  -14.0118   -0.3016 N   0  0
   -0.0572  -12.7448   -0.7157 C   0  0
   -1.0060  -11.8236   -0.5010 N   0  0
   -1.2819  -15.9506    0.9206 Cl  0  0
    1.3671  -12.1887   -1.6061 S   0  0
    2.6804  -12.8317   -0.4955 C   0  0  2  0  0  0
    3.7521  -11.7619   -0.3367 C   0  0
    4.3609  -11.8273    0.8685 O   0  0
    4.1067  -10.9175   -1.1436 O   0  0
   -3.1092  -11.2236    0.4573 N   0  0
   -3.0907   -9.8186    0.3340 C   0  0
   -1.9167   -9.0700    0.2004 C   0  0
   -1.9436   -7.6737    0.0518 C   0  0
   -3.1471   -6.9714    0.0383 C   0  0
   -4.3240   -7.7117    0.2106 C   0  0
   -4.2987   -9.1093    0.3559 C   0  0
    3.2662  -14.1148   -1.1003 C   0  0
    4.1497  -14.8845   -0.1104 C   0  0
    4.6324  -16.2069   -0.7114 C   0  0
    5.5168  -16.9752    0.2721 C   0  0
   -3.2271   -5.5754   -0.1130 N   0  0
   -2.2835   -4.5464    0.0613 C   0  0
   -1.2299   -4.6209    0.9791 C   0  0
   -0.3070   -3.5746    1.1084 C   0  0
   -0.4163   -2.4391    0.3087 C   0  0
   -1.4426   -2.3585   -0.6275 C   0  0
   -2.3674   -3.4026   -0.7472 C   0  0
    5.9992  -18.2952   -0.3288 C   0  0
    6.8800  -19.0616    0.6450 C   0  0
   -3.1175  -13.7667    1.2284 H   0  0
    2.2494  -13.0174    0.4948 H   0  0
    5.0963  -11.1779    0.8113 H   0  0
   -4.0346  -11.6249    0.5480 H   0  0
   -0.9434   -9.5514    0.1980 H   0  0
   -0.9993   -7.1572   -0.0966 H   0  0
   -5.2856   -7.2060    0.2308 H   0  0
   -5.2467   -9.6298    0.4729 H   0  0
    2.4563  -14.7843   -1.4179 H   0  0
    3.8586  -13.8783   -1.9942 H   0  0
    5.0198  -14.2790    0.1661 H   0  0
    3.5846  -15.0845    0.8080 H   0  0
    3.7679  -16.8235   -0.9860 H   0  0
    5.1937  -16.0079   -1.6324 H   0  0
    6.3815  -16.3591    0.5475 H   0  0
    4.9553  -17.1740    1.1931 H   0  0
   -4.1278   -5.2524   -0.4484 H   0  0
   -1.1360   -5.4832    1.6343 H   0  0
    0.4928   -3.6471    1.8409 H   0  0
    0.2847   -1.6114    0.4159 H   0  0
   -1.5280   -1.4760   -1.2597 H   0  0
   -3.1580   -3.3122   -1.4888 H   0  0
    5.1386  -18.9171   -0.6013 H   0  0
    6.5638  -18.1016   -1.2483 H   0  0
    7.2146  -20.0013    0.1945 H   0  0
    6.3342  -19.3004    1.5633 H   0  0
    7.7670  -18.4790    0.9137 H   0  0
  1  2  2  0
  1 13  1  0
  2  3  1  0
  2 33  1  0
  3  4  2  0
  3  7  1  0
  4  5  1  0
  5  6  2  0
  5  8  1  0
  6  1  1  0
  8  9  1  0
  9 10  1  0
  9 20  1  0
  9 34  1  0
 10 11  1  0
 10 12  2  0
 11 35  1  0
 13 14  1  0
 13 36  1  0
 14 15  2  0
 15 16  1  0
 15 37  1  0
 16 17  2  0
 16 38  1  0
 17 18  1  0
 17 24  1  0
 18 19  2  0
 18 39  1  0
 19 14  1  0
 19 40  1  0
 20 21  1  0
 20 41  1  0
 20 42  1  0
 21 22  1  0
 21 43  1  0
 21 44  1  0
 22 23  1  0
 22 45  1  0
 22 46  1  0
 23 31  1  0
 23 47  1  0
 23 48  1  0
 24 25  1  0
 24 49  1  0
 25 26  2  0
 26 27  1  0
 26 50  1  0
 27 28  2  0
 27 51  1  0
 28 29  1  0
 28 52  1  0
 29 30  2  0
 29 53  1  0
 30 25  1  0
 30 54  1  0
 31 32  1  0
 31 55  1  0
 31 56  1  0
 32 57  1  0
 32 58  1  0
 32 59  1  0
M  END
> <Name>
CHEMBL3318038

> <Clean Energy>
10.593

> <chembl_id>
CHEMBL3318038

> <chembl_pref_name>
None

> <efficacy>
1.196581197

> <Forcefield>
MMFF

> <ForcefieldBase>
MMFF

> <ForcefieldFFML>
<?xml version="1.0" encoding="UTF-8"?>
<!DOCTYPE ffml SYSTEM "Ffml.dtd">
<ffml version="1.0">
<forcefield name="MMFF" derivedFrom="MMFF" base="MMFF">
<atomTypes>
<atomType
name="C100"
element="C"
mass="12.011"
annotation=""/>
<atomType
name="N101"
element="N"
mass="14.007"
annotation=""/>
<atomType
name="Cl102"
element="Cl"
mass="35.453"
annotation=""/>
<atomType
name="S103"
element="S"
mass="32.066"
annotation=""/>
<atomType
name="O104"
element="O"
mass="16"
annotation=""/>
<atomType
name="H105"
element="H"
mass="1.008"
annotation=""/>
</atomTypes>
<parameters>
</parameters>
</forcefield>
</ffml>

> <Initial Potential Energy>
61.98544

> <Initial RMS Gradient>
37.88035

> <Minimization Criteria>
CONJUG> Minimization exiting with gradient tolerance ( 0.0100000) satisfied.

> <CHARMm Energy>
-79.49502

> <Potential Energy>
-79.49502

> <RMS Gradient>
0.00987

> <Bond Energy>
4.74249

> <Angle Energy>
13.82785

> <STRBend>
0.15042

> <Dihedral Energy>
15.66253

> <OOPLane>
0.39239

> <Van der Waals Energy>
57.71338

> <Electrostatic Energy>
-171.98409

> <Hydrogen Bond Energy>
0

> <Solvation Free Energy>
0

> <HasGasteigerCharges>
true

> <REMARK99>
REMARK  99  MacroMolecule created from Mol2 file
REMARK  99  CHEMBL3318038
REMARK  99  PROTEIN
REMARK  99  GASTEIGER
REMARK  99
REMARK  99

$$$$
CHEMBL5077842
  SciTegic05292516403D

 52 54  0  0  0  0            999 V2000
   10.3896   -2.7843   -1.8138 C   0  0
   10.4763   -3.0338   -0.3050 C   0  0
    9.7663   -1.9693    0.5369 C   0  0
    6.3699   -4.8485   -0.4494 C   0  0
    6.1554   -6.0313    0.2658 C   0  0
    7.2825   -6.6230    0.8502 C   0  0
    8.5613   -6.0522    0.7176 C   0  0
    8.7734   -4.8360    0.0498 C   0  0
    7.6540   -4.2521   -0.5407 C   0  0
   10.0630   -4.3744    0.0426 O   0  0
    4.8101   -6.7200    0.4625 C   0  0
    3.5930   -6.0782   -0.0140 N   0  0
    3.0812   -4.8480    0.4313 C   0  0
    1.7880   -4.7795   -0.0727 N   0  0
    1.5856   -5.9745   -0.6716 C   0  0
    2.5905   -6.7933   -0.6594 N   0  0
    3.6735   -4.0557    1.1489 O   0  0
    0.8805   -3.6957    0.0286 C   0  0
    1.2879   -2.4486    0.5283 C   0  0
    0.3962   -1.3664    0.5998 C   0  0
   -0.9300   -1.4954    0.1652 C   0  0
   -1.3461   -2.7399   -0.3226 C   0  0
   -0.4521   -3.8201   -0.3927 C   0  0
   -1.9041   -0.3402    0.2438 C   0  0
   -1.3014    0.8817    0.2535 F   0  0
   -2.7762   -0.3110   -0.8051 F   0  0
   -2.6788   -0.3835    1.3638 F   0  0
   12.0043   -2.9135    0.0320 C   0  0
   12.6479   -1.8689    0.0317 O   0  0
   12.6074   -4.0980    0.2977 O   0  0
    9.5778   -6.7351    1.3330 O   0  0
   10.4412   -7.3391    0.3817 C   0  0
    9.8070   -7.7117   -0.7507 F   0  0
   11.4541   -6.4963    0.0700 F   0  0
   10.9792   -8.4452    0.9399 F   0  0
    9.3635   -2.7449   -2.1813 H   0  0
   10.8906   -3.5884   -2.3655 H   0  0
   10.8675   -1.8380   -2.0922 H   0  0
    9.8552   -2.2014    1.6046 H   0  0
    8.6990   -1.9013    0.3160 H   0  0
   10.1923   -0.9733    0.3722 H   0  0
    5.5366   -4.3433   -0.9346 H   0  0
    7.1889   -7.5556    1.4085 H   0  0
    7.7048   -3.3176   -1.0862 H   0  0
    4.8653   -7.7054   -0.0158 H   0  0
    4.6661   -6.8691    1.5401 H   0  0
    0.6224   -6.2096   -1.1360 H   0  0
    2.3134   -2.2751    0.8574 H   0  0
    0.7486   -0.4151    0.9969 H   0  0
   -2.3752   -2.8778   -0.6566 H   0  0
   -0.8475   -4.7565   -0.7749 H   0  0
   11.9776   -4.8489    0.2401 H   0  0
  1 36  1  0
  1 37  1  0
  1 38  1  0
  2  1  1  0
  2 28  1  0
  3  2  1  0
  3 39  1  0
  3 40  1  0
  3 41  1  0
  4  5  2  0
  4 42  1  0
  5  6  1  0
  5 11  1  0
  6  7  2  0
  6 43  1  0
  7  8  1  0
  7 31  1  0
  8  9  2  0
  8 10  1  0
  9  4  1  0
  9 44  1  0
 10  2  1  0
 11 12  1  0
 11 45  1  0
 11 46  1  0
 12 13  1  0
 13 14  1  0
 13 17  2  0
 14 15  1  0
 14 18  1  0
 15 16  2  0
 15 47  1  0
 16 12  1  0
 18 19  2  0
 19 20  1  0
 19 48  1  0
 20 21  2  0
 20 49  1  0
 21 22  1  0
 21 24  1  0
 22 23  2  0
 22 50  1  0
 23 18  1  0
 23 51  1  0
 24 25  1  0
 24 26  1  0
 24 27  1  0
 28 29  2  0
 28 30  1  0
 30 52  1  0
 31 32  1  0
 32 33  1  0
 32 34  1  0
 32 35  1  0
M  END
> <Name>
CHEMBL5077842

> <Clean Energy>
67.347397

> <chembl_id>
CHEMBL5077842

> <chembl_pref_name>
None

> <efficacy>
0.9

> <Forcefield>
MMFF

> <ForcefieldBase>
MMFF

> <ForcefieldFFML>
<?xml version="1.0" encoding="UTF-8"?>
<!DOCTYPE ffml SYSTEM "Ffml.dtd">
<ffml version="1.0">
<forcefield name="MMFF" derivedFrom="MMFF" base="MMFF">
<atomTypes>
<atomType
name="C100"
element="C"
mass="12.011"
annotation=""/>
<atomType
name="O101"
element="O"
mass="16"
annotation=""/>
<atomType
name="N102"
element="N"
mass="14.007"
annotation=""/>
<atomType
name="F103"
element="F"
mass="18.998"
annotation=""/>
<atomType
name="H104"
element="H"
mass="1.008"
annotation=""/>
</atomTypes>
<parameters>
</parameters>
</forcefield>
</ffml>

> <Initial Potential Energy>
232.03149

> <Initial RMS Gradient>
31.31534

> <Minimization Criteria>
STEEPD> Minimization exiting with gradient tolerance ( 3.0000000) satisfied.

> <CHARMm Energy>
119.66522

> <Potential Energy>
119.66522

> <RMS Gradient>
0.07468

> <Bond Energy>
8.84402

> <Angle Energy>
41.51557

> <STRBend>
-0.54365

> <Dihedral Energy>
11.66508

> <OOPLane>
0.34499

> <Van der Waals Energy>
54.45971

> <Electrostatic Energy>
3.37951

> <Hydrogen Bond Energy>
0

> <Solvation Free Energy>
0

> <HasGasteigerCharges>
true

> <REMARK99>
REMARK  99  MacroMolecule created from Mol2 file
REMARK  99  CHEMBL5077842
REMARK  99  PROTEIN
REMARK  99  GASTEIGER
REMARK  99
REMARK  99

$$$$
CHEMBL3393179
  SciTegic05292516403D

 49 51  0  0  0  0            999 V2000
    2.1931   -2.6641   -0.6341 C   0  0
    1.7910   -1.2354   -0.9561 C   0  0
    2.0549   -3.6038   -1.4073 O   0  0
    2.7890   -2.8378    0.5716 O   0  0
    0.6612   -0.6007   -0.1698 C   0  0
    0.4431    0.7918   -0.3014 C   0  0
   -0.6344    1.4402    0.3325 C   0  0
   -1.4869    0.6781    1.1278 C   0  0
   -1.2822   -0.7000    1.2693 C   0  0
   -0.2231   -1.3380    0.6193 C   0  0
   -1.7754    3.6705    0.6212 C   0  0
   -1.5343    5.1485    0.4457 C   0  0
   -2.6141    6.0483    0.2320 C   0  0
   -2.3216    7.4032    0.0296 C   0  0
   -1.0002    7.8742    0.0696 C   0  0
    0.0488    6.9961    0.3180 C   0  0
   -0.2130    5.6393    0.5111 C   0  0
   -2.8395    3.3046    1.1117 O   0  0
   -0.7734    2.8372    0.1428 N   0  0
   -5.1391    6.1902   -0.0836 C   0  0
   -6.3083    5.2530   -0.1959 C   0  0
   -7.5933    5.7248    0.0855 C   0  0
   -8.6991    4.8695   -0.0184 C   0  0
   -8.5396    3.5287   -0.4102 C   0  0
   -7.2500    3.0646   -0.7099 C   0  0
   -6.1462    3.9188   -0.6092 C   0  0
   -5.2961    7.3869   -0.2741 O   0  0
   -3.9459    5.5535    0.2189 N   0  0
   -9.7442    2.6192   -0.5373 C   0  0
  -10.5910    2.7098    0.5264 F   0  0
   -9.4129    1.3003   -0.6394 F   0  0
  -10.4986    2.9022   -1.6364 F   0  0
    2.6964   -0.6230   -0.8575 H   0  0
    1.5126   -1.2145   -2.0178 H   0  0
    2.8276   -2.0176    1.1014 H   0  0
    1.1342    1.3630   -0.9222 H   0  0
   -2.3257    1.1237    1.6537 H   0  0
   -1.9672   -1.2828    1.8828 H   0  0
   -0.1160   -2.4149    0.7355 H   0  0
   -3.1120    8.1318   -0.1441 H   0  0
   -0.8024    8.9379   -0.0773 H   0  0
    1.0749    7.3562    0.3663 H   0  0
    0.6248    4.9837    0.7386 H   0  0
   -0.0860    3.2677   -0.4577 H   0  0
   -7.7348    6.7593    0.3914 H   0  0
   -9.6929    5.2542    0.2087 H   0  0
   -7.0941    2.0342   -1.0309 H   0  0
   -5.1689    3.5194   -0.8778 H   0  0
   -3.9988    4.5679    0.4895 H   0  0
  1  2  1  0
  1  3  2  0
  1  4  1  0
  2  5  1  0
  2 33  1  0
  2 34  1  0
  4 35  1  0
  5  6  1  0
  5 10  2  0
  6  7  2  0
  6 36  1  0
  7  8  1  0
  7 19  1  0
  8  9  2  0
  8 37  1  0
  9 10  1  0
  9 38  1  0
 10 39  1  0
 11 12  1  0
 11 18  2  0
 11 19  1  0
 12 13  1  0
 12 17  2  0
 13 14  2  0
 13 28  1  0
 14 15  1  0
 14 40  1  0
 15 16  2  0
 15 41  1  0
 16 17  1  0
 16 42  1  0
 17 43  1  0
 19 44  1  0
 20 21  1  0
 20 27  2  0
 20 28  1  0
 21 22  1  0
 21 26  2  0
 22 23  2  0
 22 45  1  0
 23 24  1  0
 23 46  1  0
 24 25  2  0
 24 29  1  0
 25 26  1  0
 25 47  1  0
 26 48  1  0
 28 49  1  0
 29 30  1  0
 29 31  1  0
 29 32  1  0
M  END
> <Name>
CHEMBL3393179

> <Clean Energy>
15.8634

> <chembl_id>
CHEMBL3393179

> <chembl_pref_name>
None

> <efficacy>
1.528964862

> <Forcefield>
MMFF

> <ForcefieldBase>
MMFF

> <ForcefieldFFML>
<?xml version="1.0" encoding="UTF-8"?>
<!DOCTYPE ffml SYSTEM "Ffml.dtd">
<ffml version="1.0">
<forcefield name="MMFF" derivedFrom="MMFF" base="MMFF">
<atomTypes>
<atomType
name="C100"
element="C"
mass="12.011"
annotation=""/>
<atomType
name="O101"
element="O"
mass="16"
annotation=""/>
<atomType
name="N102"
element="N"
mass="14.007"
annotation=""/>
<atomType
name="F103"
element="F"
mass="18.998"
annotation=""/>
<atomType
name="H104"
element="H"
mass="1.008"
annotation=""/>
</atomTypes>
<parameters>
</parameters>
</forcefield>
</ffml>

> <Initial Potential Energy>
177.83099

> <Initial RMS Gradient>
32.79853

> <Minimization Criteria>
STEEPD> Minimization exiting with gradient tolerance ( 3.0000000) satisfied.

> <CHARMm Energy>
81.50559

> <Potential Energy>
81.50559

> <RMS Gradient>
0.0657

> <Bond Energy>
9.00973

> <Angle Energy>
13.58035

> <STRBend>
2.04873

> <Dihedral Energy>
6.92868

> <OOPLane>
0.18092

> <Van der Waals Energy>
63.14105

> <Electrostatic Energy>
-13.38386

> <Hydrogen Bond Energy>
0

> <Solvation Free Energy>
0

> <HasGasteigerCharges>
true

> <REMARK99>
REMARK  99  MacroMolecule created from Mol2 file
REMARK  99  CHEMBL3393179
REMARK  99  PROTEIN
REMARK  99  GASTEIGER
REMARK  99
REMARK  99

$$$$
CHEMBL2042804
  SciTegic05292516403D

 68 72  0  0  0  0            999 V2000
   28.2761   -0.2237   -1.5572 O   0  0
   27.1403    0.5678   -1.3781 C   0  0
   27.4345    1.7542   -0.5028 C   0  0  2  0  0  0
   28.7000    1.2646    0.1455 C   0  0
   29.2065    0.1779   -0.6067 C   0  0
   30.4672   -0.3819   -0.3700 C   0  0
   31.2039    0.1857    0.6964 C   0  0
   30.6658    1.2157    1.4937 C   0  0
   29.4212    1.7607    1.2090 C   0  0
   28.9930    2.7744    2.0019 O   0  0
   32.4512   -0.3036    1.0218 O   0  0
   33.4570    0.7125    0.9860 C   0  0
   31.0250   -1.4636   -1.2638 C   0  0
   32.1818   -2.0742   -0.8334 N   0  0
   32.9632   -3.0330   -1.5883 C   0  0
   34.2868   -3.2305   -0.8708 C   0  0
   35.3323   -2.2617   -1.0507 C   0  0
   36.4979   -2.3691   -0.2614 C   0  0
   36.6171   -3.4113    0.6599 C   0  0
   35.6030   -4.3534    0.8261 C   0  0
   34.4190   -4.2773    0.0866 C   0  0
   33.2828   -5.2651    0.3112 C   0  0
   33.4706   -6.3259    1.4035 C   0  0
   32.2503   -7.2285    1.5148 C   0  0
   37.5332   -1.4279   -0.3883 C   0  0
   37.4455   -0.3734   -1.2935 C   0  0
   36.3106   -0.2416   -2.0767 C   0  0
   35.2719   -1.1692   -1.9551 C   0  0
   30.4911   -1.7537   -2.3274 O   0  0
   26.2254    2.0335    0.3905 C   0  0
   24.8551    1.8513   -0.2162 C   0  0
   24.7638    0.9980   -1.2626 C   0  0
   25.8971    0.2240   -1.7419 C   0  0
   23.5985    0.7092   -1.9426 O   0  0
   23.6307    2.5821    0.2588 C   0  0
   23.7591    3.6163    1.3447 C   0  0
   22.5333    2.3451   -0.2561 O   0  0
   26.3470    2.5022    1.5252 O   0  0
   27.7275    3.0105   -1.3386 C   0  0
   31.2197    1.6005    2.3464 H   0  0
   28.0113    2.8000    2.0004 H   0  0
   34.4295    0.2145    0.9314 H   0  0
   33.4419    1.3079    1.9041 H   0  0
   33.3555    1.3548    0.1037 H   0  0
   32.5364   -1.7995    0.0773 H   0  0
   32.3789   -3.9530   -1.6769 H   0  0
   33.0916   -2.6813   -2.6170 H   0  0
   37.5150   -3.5067    1.2679 H   0  0
   35.7694   -5.1404    1.5586 H   0  0
   32.3801   -4.6927    0.5584 H   0  0
   33.1057   -5.7900   -0.6361 H   0  0
   34.3467   -6.9469    1.1825 H   0  0
   33.6430   -5.8446    2.3735 H   0  0
   32.4028   -7.9768    2.2988 H   0  0
   32.0654   -7.7560    0.5735 H   0  0
   31.3555   -6.6504    1.7666 H   0  0
   38.4331   -1.5179    0.2177 H   0  0
   38.2709    0.3284   -1.3908 H   0  0
   36.2256    0.5788   -2.7840 H   0  0
   34.3978   -1.0145   -2.5843 H   0  0
   25.7128   -0.6770   -2.3195 H   0  0
   22.8399    1.2218   -1.5634 H   0  0
   24.5432    4.3360    1.0966 H   0  0
   23.9566    3.1317    2.3038 H   0  0
   22.8178    4.1692    1.4263 H   0  0
   28.0199    3.8495   -0.6952 H   0  0
   26.8476    3.3346   -1.9073 H   0  0
   28.5413    2.8488   -2.0565 H   0  0
  1  2  1  0
  2  3  1  0
  2 33  2  0
  3  4  1  0
  3 30  1  0
  3 39  1  0
  4  5  2  0
  4  9  1  0
  5  1  1  0
  5  6  1  0
  6  7  2  0
  6 13  1  0
  7  8  1  0
  7 11  1  0
  8  9  2  0
  8 40  1  0
  9 10  1  0
 10 41  1  0
 11 12  1  0
 12 42  1  0
 12 43  1  0
 12 44  1  0
 13 14  1  0
 13 29  2  0
 14 15  1  0
 14 45  1  0
 15 16  1  0
 15 46  1  0
 15 47  1  0
 16 21  1  0
 17 16  2  0
 17 28  1  0
 18 17  1  0
 18 25  1  0
 19 18  2  0
 19 48  1  0
 20 19  1  0
 20 49  1  0
 21 20  2  0
 21 22  1  0
 22 23  1  0
 22 50  1  0
 22 51  1  0
 23 24  1  0
 23 52  1  0
 23 53  1  0
 24 54  1  0
 24 55  1  0
 24 56  1  0
 25 26  2  0
 25 57  1  0
 26 27  1  0
 26 58  1  0
 27 28  2  0
 27 59  1  0
 28 60  1  0
 30 31  1  0
 30 38  2  0
 31 32  2  0
 31 35  1  0
 32 33  1  0
 32 34  1  0
 33 61  1  0
 34 62  1  0
 35 36  1  0
 35 37  2  0
 36 63  1  0
 36 64  1  0
 36 65  1  0
 39 66  1  0
 39 67  1  0
 39 68  1  0
M  END
> <Name>
CHEMBL2042804

> <Clean Energy>
64.160103

> <chembl_id>
CHEMBL2042804

> <chembl_pref_name>
None

> <efficacy>
0.349056604

> <Forcefield>
MMFF

> <ForcefieldBase>
MMFF

> <ForcefieldFFML>
<?xml version="1.0" encoding="UTF-8"?>
<!DOCTYPE ffml SYSTEM "Ffml.dtd">
<ffml version="1.0">
<forcefield name="MMFF" derivedFrom="MMFF" base="MMFF">
<atomTypes>
<atomType
name="O100"
element="O"
mass="16"
annotation=""/>
<atomType
name="C101"
element="C"
mass="12.011"
annotation=""/>
<atomType
name="N102"
element="N"
mass="14.007"
annotation=""/>
<atomType
name="H103"
element="H"
mass="1.008"
annotation=""/>
</atomTypes>
<parameters>
</parameters>
</forcefield>
</ffml>

> <Initial Potential Energy>
328.66374

> <Initial RMS Gradient>
86.08931

> <Minimization Criteria>
STEEPD> Minimization exiting with gradient tolerance ( 3.0000000) satisfied.

> <CHARMm Energy>
64.30405

> <Potential Energy>
64.30405

> <RMS Gradient>
0.06864

> <Bond Energy>
12.3858

> <Angle Energy>
29.33596

> <STRBend>
0.31338

> <Dihedral Energy>
6.92454

> <OOPLane>
0.6653

> <Van der Waals Energy>
85.05784

> <Electrostatic Energy>
-70.37877

> <Hydrogen Bond Energy>
0

> <Solvation Free Energy>
0

> <HasGasteigerCharges>
true

> <REMARK99>
REMARK  99  MacroMolecule created from Mol2 file
REMARK  99  CHEMBL2042804
REMARK  99  PROTEIN
REMARK  99  GASTEIGER
REMARK  99
REMARK  99

$$$$
CHEMBL4168900
  SciTegic05292516403D

 45 48  0  0  0  0            999 V2000
   36.2160   -3.1955    0.7476 C   0  0
   37.3972   -3.2657    1.4615 C   0  0
   38.6196   -3.1133    0.9070 N   0  0
   38.6690   -2.8623   -0.4202 C   0  0
   37.5437   -2.7888   -1.2229 C   0  0
   36.3059   -2.9579   -0.6170 C   0  0
   39.8856   -2.7390   -1.0815 O   0  0
   41.0306   -2.4324   -0.3810 C   0  0
   42.2014   -3.0206   -0.8842 C   0  0
   42.3146   -1.1776    1.2607 C   0  0
   41.0874   -1.5109    0.6672 C   0  0
   43.4932   -1.7596    0.7669 C   0  0
   43.4196   -2.6604   -0.2898 C   0  0
   44.7299   -3.0059   -0.5312 N   0  0
   45.5306   -2.3221    0.3618 C   0  0
   44.7950   -1.5651    1.1562 N   0  0
   45.1837   -3.9110   -1.5602 C   0  0
   47.0272   -2.3669    0.3683 C   0  0
   47.4374   -3.7353    0.3891 O   0  0
   48.7848   -3.9791    0.3390 C   0  0
   49.1384   -5.3313    0.4097 C   0  0
   50.4774   -5.7280    0.3782 C   0  0
   51.4806   -4.7705    0.2596 C   0  0
   51.1342   -3.4204    0.1651 C   0  0
   49.7905   -3.0176    0.2239 C   0  0
   52.2198   -2.4254    0.0226 C   0  0
   53.2516   -2.4607    0.6671 O   0  0
   51.9572   -1.5100   -0.9344 O   0  0
   34.8704   -2.8791   -1.5652 Cl  0  0
   35.2591   -3.3283    1.2408 H   0  0
   37.3959   -3.4553    2.5316 H   0  0
   37.6344   -2.6075   -2.2870 H   0  0
   42.1565   -3.7141   -1.7161 H   0  0
   42.3689   -0.4653    2.0764 H   0  0
   40.1822   -1.0331    1.0348 H   0  0
   46.0989   -3.5179   -2.0097 H   0  0
   44.4241   -3.9989   -2.3401 H   0  0
   45.3645   -4.8865   -1.1022 H   0  0
   47.3921   -1.8644   -0.5356 H   0  0
   47.4001   -1.8508    1.2609 H   0  0
   48.3627   -6.0879    0.5089 H   0  0
   50.7328   -6.7823    0.4519 H   0  0
   52.5260   -5.0733    0.2422 H   0  0
   49.5590   -1.9574    0.2084 H   0  0
   51.1792   -1.7107   -1.4881 H   0  0
  1  2  2  0
  1 30  1  0
  2  3  1  0
  2 31  1  0
  3  4  2  0
  4  5  1  0
  4  7  1  0
  5  6  2  0
  5 32  1  0
  6  1  1  0
  6 29  1  0
  7  8  1  0
  8  9  2  0
  9 13  1  0
  9 33  1  0
 10 11  2  0
 10 34  1  0
 11  8  1  0
 11 35  1  0
 12 10  1  0
 12 13  2  0
 13 14  1  0
 14 15  1  0
 14 17  1  0
 15 16  2  0
 15 18  1  0
 16 12  1  0
 17 36  1  0
 17 37  1  0
 17 38  1  0
 18 19  1  0
 18 39  1  0
 18 40  1  0
 19 20  1  0
 20 21  2  0
 21 22  1  0
 21 41  1  0
 22 23  2  0
 22 42  1  0
 23 24  1  0
 23 43  1  0
 24 25  2  0
 24 26  1  0
 25 20  1  0
 25 44  1  0
 26 27  2  0
 26 28  1  0
 28 45  1  0
M  END
> <Name>
CHEMBL4168900

> <Clean Energy>
31.185699

> <chembl_id>
CHEMBL4168900

> <chembl_pref_name>
None

> <efficacy>
0.93

> <Forcefield>
MMFF

> <ForcefieldBase>
MMFF

> <ForcefieldFFML>
<?xml version="1.0" encoding="UTF-8"?>
<!DOCTYPE ffml SYSTEM "Ffml.dtd">
<ffml version="1.0">
<forcefield name="MMFF" derivedFrom="MMFF" base="MMFF">
<atomTypes>
<atomType
name="C100"
element="C"
mass="12.011"
annotation=""/>
<atomType
name="N101"
element="N"
mass="14.007"
annotation=""/>
<atomType
name="O102"
element="O"
mass="16"
annotation=""/>
<atomType
name="Cl103"
element="Cl"
mass="35.453"
annotation=""/>
<atomType
name="H104"
element="H"
mass="1.008"
annotation=""/>
</atomTypes>
<parameters>
</parameters>
</forcefield>
</ffml>

> <Initial Potential Energy>
167.76233

> <Initial RMS Gradient>
46.38373

> <Minimization Criteria>
CONJUG> Minimization exiting with gradient tolerance ( 0.0100000) satisfied.

> <CHARMm Energy>
43.32467

> <Potential Energy>
43.32467

> <RMS Gradient>
0.00978

> <Bond Energy>
4.20633

> <Angle Energy>
18.04347

> <STRBend>
0.2891

> <Dihedral Energy>
7.41604

> <OOPLane>
0.19905

> <Van der Waals Energy>
56.90622

> <Electrostatic Energy>
-43.73554

> <Hydrogen Bond Energy>
0

> <Solvation Free Energy>
0

> <HasGasteigerCharges>
true

> <REMARK99>
REMARK  99  MacroMolecule created from Mol2 file
REMARK  99  CHEMBL4168900
REMARK  99  PROTEIN
REMARK  99  GASTEIGER
REMARK  99
REMARK  99

$$$$
CHEMBL5079871
  SciTegic05292516403D

 48 50  0  0  0  0            999 V2000
   36.2168   -6.7074    0.9843 C   0  0
   36.3389   -6.4328   -0.5263 C   0  0
   37.4672   -7.3128   -1.0907 C   0  0
   32.1501   -5.2704    0.1456 C   0  0
   31.3902   -6.4015    0.4815 C   0  0
   31.9066   -7.6696    0.1794 C   0  0
   33.1684   -7.8018   -0.4125 C   0  0
   33.9422   -6.6704   -0.6972 C   0  0
   33.4117   -5.4026   -0.4496 C   0  0
   35.1735   -6.8395   -1.2754 O   0  0
   36.7354   -4.9660   -0.8227 C   0  0
   37.7345   -4.4677   -0.0548 O   0  0
   36.2327   -4.2726   -1.6971 O   0  0
   30.0729   -6.2671    1.2129 C   0  0
   29.0456   -5.5444    0.4957 N   0  0
   28.3226   -4.4492    0.9939 C   0  0
   27.3355   -4.2016    0.0519 N   0  0
   27.5303   -5.1466   -0.8974 C   0  0
   28.5088   -5.9727   -0.6910 N   0  0
   28.5455   -3.8876    2.0563 O   0  0
   26.3177   -3.2116    0.0902 C   0  0
   26.2140   -2.3003    1.1534 C   0  0
   25.1973   -1.3343    1.1978 C   0  0
   24.2493   -1.2508    0.1750 C   0  0
   24.3458   -2.1433   -0.8973 C   0  0
   25.3619   -3.1096   -0.9357 C   0  0
   23.1673   -0.2012    0.2161 C   0  0
   23.5859    1.0073   -0.2534 F   0  0
   22.0726   -0.5267   -0.5309 F   0  0
   22.6921    0.0337    1.4727 F   0  0
   33.7665   -9.3947   -0.7259 Cl  0  0
   35.8356   -7.7165    1.1762 H   0  0
   35.5337   -5.9994    1.4657 H   0  0
   37.1790   -6.6187    1.4998 H   0  0
   37.5845   -7.1497   -2.1686 H   0  0
   37.2353   -8.3760   -0.9585 H   0  0
   38.4313   -7.1077   -0.6137 H   0  0
   31.7589   -4.2734    0.3476 H   0  0
   31.3445   -8.5705    0.4190 H   0  0
   33.9693   -4.5106   -0.7208 H   0  0
   38.1943   -5.0900    0.5397 H   0  0
   29.6590   -7.2569    1.4406 H   0  0
   30.2578   -5.7796    2.1775 H   0  0
   26.8815   -5.1949   -1.7775 H   0  0
   26.9157   -2.3079    1.9838 H   0  0
   25.1503   -0.6462    2.0430 H   0  0
   23.6213   -2.0951   -1.7114 H   0  0
   25.3691   -3.7712   -1.7971 H   0  0
  1 32  1  0
  1 33  1  0
  1 34  1  0
  2  1  1  0
  2 11  1  0
  3  2  1  0
  3 35  1  0
  3 36  1  0
  3 37  1  0
  4  5  2  0
  4 38  1  0
  5  6  1  0
  5 14  1  0
  6  7  2  0
  6 39  1  0
  7  8  1  0
  7 31  1  0
  8  9  2  0
  8 10  1  0
  9  4  1  0
  9 40  1  0
 10  2  1  0
 11 12  1  0
 11 13  2  0
 12 41  1  0
 14 15  1  0
 14 42  1  0
 14 43  1  0
 15 16  1  0
 16 17  1  0
 16 20  2  0
 17 18  1  0
 17 21  1  0
 18 19  2  0
 18 44  1  0
 19 15  1  0
 21 22  2  0
 22 23  1  0
 22 45  1  0
 23 24  2  0
 23 46  1  0
 24 25  1  0
 24 27  1  0
 25 26  2  0
 25 47  1  0
 26 21  1  0
 26 48  1  0
 27 28  1  0
 27 29  1  0
 27 30  1  0
M  END
> <Name>
CHEMBL5079871

> <Clean Energy>
66.507599

> <chembl_id>
CHEMBL5079871

> <chembl_pref_name>
None

> <efficacy>
0.99

> <Forcefield>
MMFF

> <ForcefieldBase>
MMFF

> <ForcefieldFFML>
<?xml version="1.0" encoding="UTF-8"?>
<!DOCTYPE ffml SYSTEM "Ffml.dtd">
<ffml version="1.0">
<forcefield name="MMFF" derivedFrom="MMFF" base="MMFF">
<atomTypes>
<atomType
name="C100"
element="C"
mass="12.011"
annotation=""/>
<atomType
name="O101"
element="O"
mass="16"
annotation=""/>
<atomType
name="N102"
element="N"
mass="14.007"
annotation=""/>
<atomType
name="F103"
element="F"
mass="18.998"
annotation=""/>
<atomType
name="Cl104"
element="Cl"
mass="35.453"
annotation=""/>
<atomType
name="H105"
element="H"
mass="1.008"
annotation=""/>
</atomTypes>
<parameters>
</parameters>
</forcefield>
</ffml>

> <Initial Potential Energy>
232.04396

> <Initial RMS Gradient>
31.50074

> <Minimization Criteria>
STEEPD> Minimization exiting with gradient tolerance ( 3.0000000) satisfied.

> <CHARMm Energy>
117.81947

> <Potential Energy>
117.81947

> <RMS Gradient>
0.1185

> <Bond Energy>
6.81199

> <Angle Energy>
29.11294

> <STRBend>
-0.08096

> <Dihedral Energy>
7.06909

> <OOPLane>
0.15623

> <Van der Waals Energy>
49.17622

> <Electrostatic Energy>
25.57394

> <Hydrogen Bond Energy>
0

> <Solvation Free Energy>
0

> <HasGasteigerCharges>
true

> <REMARK99>
REMARK  99  MacroMolecule created from Mol2 file
REMARK  99  CHEMBL5079871
REMARK  99  PROTEIN
REMARK  99  GASTEIGER
REMARK  99
REMARK  99

$$$$
CHEMBL5084763
  SciTegic05292516403D

 52 54  0  0  0  0            999 V2000
   35.1152  -19.1120   -0.8223 C   0  0
   35.6950  -19.9422    0.3276 C   0  0
   35.5382  -19.2906    1.7040 C   0  0
   31.4866  -21.4115    0.4072 C   0  0
   31.2447  -22.7221   -0.0057 C   0  0
   32.3754  -23.5249   -0.2460 C   0  0
   33.7002  -23.0360   -0.1102 C   0  0
   33.9151  -21.6978    0.2651 C   0  0
   32.7979  -20.9070    0.5385 C   0  0
   35.2245  -21.3093    0.3475 O   0  0
   29.8675  -23.3099   -0.3023 C   0  0
   28.6813  -22.6095    0.1528 N   0  0
   28.2003  -21.4037   -0.3765 C   0  0
   26.9420  -21.2302    0.1826 N   0  0
   26.7201  -22.3599    0.8913 C   0  0
   27.6881  -23.2223    0.9033 N   0  0
   28.7923  -20.7086   -1.1892 O   0  0
   26.0929  -20.1070    0.0495 C   0  0
   26.5233  -18.9493   -0.6197 C   0  0
   25.7139  -17.8117   -0.7080 C   0  0
   24.4598  -17.7977   -0.1074 C   0  0
   24.0042  -18.9473    0.5344 C   0  0
   24.8100  -20.0899    0.6146 C   0  0
   34.8594  -23.9760   -0.3489 C   0  0
   34.5588  -24.9901   -1.2102 F   0  0
   35.9644  -23.3679   -0.8806 F   0  0
   35.2881  -24.5790    0.7951 F   0  0
   37.2336  -20.0079    0.0503 C   0  0
   38.0110  -19.0684    0.1805 O   0  0
   37.6617  -21.2155   -0.3933 O   0  0
   23.5965  -16.7438   -0.0779 O   0  0
   24.1091  -15.4820   -0.4700 C   0  0
   24.3404  -15.4449   -1.7994 F   0  0
   23.1826  -14.5417   -0.1839 F   0  0
   25.2387  -15.1675    0.1997 F   0  0
   34.0687  -18.8432   -0.6629 H   0  0
   35.1645  -19.6696   -1.7648 H   0  0
   35.6655  -18.1739   -0.9579 H   0  0
   36.0242  -19.9012    2.4744 H   0  0
   34.4951  -19.1850    2.0070 H   0  0
   35.9900  -18.2928    1.7317 H   0  0
   30.6623  -20.7339    0.6177 H   0  0
   32.2275  -24.5582   -0.5647 H   0  0
   32.8815  -19.8745    0.8583 H   0  0
   29.7806  -23.3946   -1.3926 H   0  0
   29.8263  -24.3206    0.1219 H   0  0
   25.7686  -22.5094    1.4146 H   0  0
   27.5121  -18.8832   -1.0727 H   0  0
   26.0893  -16.9489   -1.2529 H   0  0
   23.0171  -18.9562    0.9926 H   0  0
   24.3866  -20.9440    1.1351 H   0  0
   36.9346  -21.8729   -0.4486 H   0  0
  1 36  1  0
  1 37  1  0
  1 38  1  0
  2  1  1  0
  2 28  1  0
  3  2  1  0
  3 39  1  0
  3 40  1  0
  3 41  1  0
  4  5  2  0
  4 42  1  0
  5  6  1  0
  5 11  1  0
  6  7  2  0
  6 43  1  0
  7  8  1  0
  7 24  1  0
  8  9  2  0
  8 10  1  0
  9  4  1  0
  9 44  1  0
 10  2  1  0
 11 12  1  0
 11 45  1  0
 11 46  1  0
 12 13  1  0
 13 14  1  0
 13 17  2  0
 14 15  1  0
 14 18  1  0
 15 16  2  0
 15 47  1  0
 16 12  1  0
 18 19  2  0
 19 20  1  0
 19 48  1  0
 20 21  2  0
 20 49  1  0
 21 22  1  0
 21 31  1  0
 22 23  2  0
 22 50  1  0
 23 18  1  0
 23 51  1  0
 24 25  1  0
 24 26  1  0
 24 27  1  0
 28 29  2  0
 28 30  1  0
 30 52  1  0
 31 32  1  0
 32 33  1  0
 32 34  1  0
 32 35  1  0
M  END
> <Name>
CHEMBL5084763

> <Clean Energy>
66.070297

> <chembl_id>
CHEMBL5084763

> <chembl_pref_name>
None

> <efficacy>
0.98

> <Forcefield>
MMFF

> <ForcefieldBase>
MMFF

> <ForcefieldFFML>
<?xml version="1.0" encoding="UTF-8"?>
<!DOCTYPE ffml SYSTEM "Ffml.dtd">
<ffml version="1.0">
<forcefield name="MMFF" derivedFrom="MMFF" base="MMFF">
<atomTypes>
<atomType
name="C100"
element="C"
mass="12.011"
annotation=""/>
<atomType
name="O101"
element="O"
mass="16"
annotation=""/>
<atomType
name="N102"
element="N"
mass="14.007"
annotation=""/>
<atomType
name="F103"
element="F"
mass="18.998"
annotation=""/>
<atomType
name="H104"
element="H"
mass="1.008"
annotation=""/>
</atomTypes>
<parameters>
</parameters>
</forcefield>
</ffml>

> <Initial Potential Energy>
239.40289

> <Initial RMS Gradient>
34.205

> <Minimization Criteria>
STEEPD> Minimization exiting with gradient tolerance ( 3.0000000) satisfied.

> <CHARMm Energy>
106.75611

> <Potential Energy>
106.75611

> <RMS Gradient>
0.01284

> <Bond Energy>
8.34294

> <Angle Energy>
44.24407

> <STRBend>
-1.00586

> <Dihedral Energy>
4.24791

> <OOPLane>
0.30364

> <Van der Waals Energy>
57.50219

> <Electrostatic Energy>
-6.87877

> <Hydrogen Bond Energy>
0

> <Solvation Free Energy>
0

> <HasGasteigerCharges>
true

> <REMARK99>
REMARK  99  MacroMolecule created from Mol2 file
REMARK  99  CHEMBL5084763
REMARK  99  PROTEIN
REMARK  99  GASTEIGER
REMARK  99
REMARK  99

$$$$
CHEMBL5081430
  SciTegic05292516403D

 55 57  0  0  0  0            999 V2000
   47.3957  -10.8868   -1.5045 C   0  0
   47.3958  -11.2856   -0.0236 C   0  0
   47.5519  -12.8053    0.1181 C   0  0
   43.0399  -10.9363   -1.0137 C   0  0
   42.5096  -12.1168   -0.4880 C   0  0
   43.2048  -12.7655    0.5330 C   0  0
   44.4386  -12.2725    1.0010 C   0  0
   45.0220  -11.1639    0.3628 C   0  0
   44.2730  -10.4249   -0.5678 C   0  0
   44.7207   -9.0996   -1.1183 C   0  0
   45.0687  -12.9690    2.1749 C   0  0
   46.2740  -10.7362    0.7318 O   0  0
   48.6643  -10.6598    0.5855 C   0  0
   48.4382   -9.7087    1.5266 O   0  0
   49.8076  -10.9555    0.2563 O   0  0
   40.9990  -12.7678   -1.1848 S   0  0
   39.9622  -12.9501    0.3060 C   0  0
   38.6413  -13.4610   -0.0097 N   0  0
   37.4309  -12.7725    0.1557 C   0  0
   36.4421  -13.6796   -0.1838 N   0  0
   37.1163  -14.8060   -0.5165 C   0  0
   38.4117  -14.7456   -0.4256 N   0  0
   37.3541  -11.6167    0.5449 O   0  0
   35.0369  -13.4874   -0.1516 C   0  0
   34.4744  -12.2665    0.2483 C   0  0
   33.0828  -12.0818    0.3078 C   0  0
   32.2055  -13.1141   -0.0406 C   0  0
   32.7550  -14.3366   -0.4444 C   0  0
   34.1473  -14.5174   -0.5022 C   0  0
   30.7074  -12.9362    0.0505 C   0  0
   30.3046  -11.6339    0.0173 F   0  0
   30.0330  -13.5534   -0.9627 F   0  0
   30.1875  -13.4529    1.2009 F   0  0
   46.5381  -11.3074   -2.0381 H   0  0
   48.2999  -11.2400   -2.0143 H   0  0
   47.3679   -9.7986   -1.6197 H   0  0
   47.6471  -13.0959    1.1692 H   0  0
   48.4503  -13.1664   -0.3964 H   0  0
   46.6996  -13.3431   -0.3079 H   0  0
   42.4848  -10.3971   -1.7809 H   0  0
   42.8030  -13.6767    0.9715 H   0  0
   45.0501   -9.2095   -2.1558 H   0  0
   45.5331   -8.6647   -0.5284 H   0  0
   43.8937   -8.3815   -1.0887 H   0  0
   45.4713  -13.9399    1.8717 H   0  0
   44.3206  -13.1300    2.9592 H   0  0
   45.8691  -12.3736    2.6240 H   0  0
   47.4673   -9.6306    1.6650 H   0  0
   40.4228  -13.6547    1.0048 H   0  0
   39.8682  -11.9777    0.7990 H   0  0
   36.5776  -15.7046   -0.8330 H   0  0
   35.0966  -11.4204    0.5324 H   0  0
   32.6981  -11.1155    0.6331 H   0  0
   32.0979  -15.1633   -0.7171 H   0  0
   34.4997  -15.4916   -0.8273 H   0  0
  1 34  1  0
  1 35  1  0
  1 36  1  0
  2  1  1  0
  2 13  1  0
  3  2  1  0
  3 37  1  0
  3 38  1  0
  3 39  1  0
  4  5  2  0
  4 40  1  0
  5  6  1  0
  5 16  1  0
  6  7  2  0
  6 41  1  0
  7  8  1  0
  7 11  1  0
  8  9  2  0
  8 12  1  0
  9  4  1  0
  9 10  1  0
 10 42  1  0
 10 43  1  0
 10 44  1  0
 11 45  1  0
 11 46  1  0
 11 47  1  0
 12  2  1  0
 13 14  1  0
 13 15  2  0
 14 48  1  0
 16 17  1  0
 17 18  1  0
 17 49  1  0
 17 50  1  0
 18 19  1  0
 19 20  1  0
 19 23  2  0
 20 21  1  0
 20 24  1  0
 21 22  2  0
 21 51  1  0
 22 18  1  0
 24 25  2  0
 25 26  1  0
 25 52  1  0
 26 27  2  0
 26 53  1  0
 27 28  1  0
 27 30  1  0
 28 29  2  0
 28 54  1  0
 29 24  1  0
 29 55  1  0
 30 31  1  0
 30 32  1  0
 30 33  1  0
M  END
> <Name>
CHEMBL5081430

> <Clean Energy>
63.884998

> <chembl_id>
CHEMBL5081430

> <chembl_pref_name>
None

> <efficacy>
0.96

> <Forcefield>
MMFF

> <ForcefieldBase>
MMFF

> <ForcefieldFFML>
<?xml version="1.0" encoding="UTF-8"?>
<!DOCTYPE ffml SYSTEM "Ffml.dtd">
<ffml version="1.0">
<forcefield name="MMFF" derivedFrom="MMFF" base="MMFF">
<atomTypes>
<atomType
name="C100"
element="C"
mass="12.011"
annotation=""/>
<atomType
name="O101"
element="O"
mass="16"
annotation=""/>
<atomType
name="S102"
element="S"
mass="32.066"
annotation=""/>
<atomType
name="N103"
element="N"
mass="14.007"
annotation=""/>
<atomType
name="F104"
element="F"
mass="18.998"
annotation=""/>
<atomType
name="H105"
element="H"
mass="1.008"
annotation=""/>
</atomTypes>
<parameters>
</parameters>
</forcefield>
</ffml>

> <Initial Potential Energy>
202.70426

> <Initial RMS Gradient>
28.8953

> <Minimization Criteria>
STEEPD> Minimization exiting with gradient tolerance ( 3.0000000) satisfied.

> <CHARMm Energy>
85.77447

> <Potential Energy>
85.77447

> <RMS Gradient>
0.06136

> <Bond Energy>
7.37634

> <Angle Energy>
28.00369

> <STRBend>
0.41376

> <Dihedral Energy>
13.75761

> <OOPLane>
0.12623

> <Van der Waals Energy>
54.53072

> <Electrostatic Energy>
-18.43387

> <Hydrogen Bond Energy>
0

> <Solvation Free Energy>
0

> <HasGasteigerCharges>
true

> <REMARK99>
REMARK  99  MacroMolecule created from Mol2 file
REMARK  99  CHEMBL5081430
REMARK  99  PROTEIN
REMARK  99  GASTEIGER
REMARK  99
REMARK  99

$$$$
CHEMBL5078556
  SciTegic05292516403D

 54 56  0  0  0  0            999 V2000
   28.9745   -5.8402    1.1787 C   0  0
   29.2769   -5.7804   -0.3324 C   0  0
   30.3522   -6.8275   -0.6675 C   0  0
   24.9093   -5.1875    0.2333 C   0  0
   24.3902   -6.4540    0.5381 C   0  0
   25.1404   -7.5827    0.1982 C   0  0
   26.3959   -7.4590   -0.4190 C   0  0
   26.9219   -6.1778   -0.6588 C   0  0
   26.1497   -5.0350   -0.4047 C   0  0
   26.5990   -3.6545   -0.7857 C   0  0
   27.1638   -8.7024   -0.7636 C   0  0
   28.1695   -6.0836   -1.2146 O   0  0
   29.8646   -4.4064   -0.7373 C   0  0
   30.8244   -3.9219    0.0879 O   0  0
   29.5610   -3.7804   -1.7444 O   0  0
   23.0613   -6.5990    1.2446 C   0  0
   21.9840   -5.8760    0.6053 N   0  0
   21.4429   -4.6570    1.0327 C   0  0
   20.4372   -4.3654    0.1248 N   0  0
   20.4646   -5.3953   -0.7531 C   0  0
   21.3462   -6.3178   -0.5250 N   0  0
   21.8140   -4.0318    2.0155 O   0  0
   19.5618   -3.2506    0.1229 C   0  0
   19.7154   -2.1979    1.0358 C   0  0
   18.8428   -1.0991    1.0450 C   0  0
   17.7801   -1.0175    0.1393 C   0  0
   17.6132   -2.0645   -0.7741 C   0  0
   18.4952   -3.1584   -0.7864 C   0  0
   16.8210    0.1490    0.1534 C   0  0
   17.2942    1.2382    0.8222 F   0  0
   15.6302   -0.1592    0.7406 F   0  0
   16.5096    0.5930   -1.0981 F   0  0
   28.4835   -6.7779    1.4584 H   0  0
   28.3229   -5.0172    1.4905 H   0  0
   29.8840   -5.7696    1.7844 H   0  0
   30.5887   -6.8154   -1.7383 H   0  0
   30.0020   -7.8385   -0.4356 H   0  0
   31.2827   -6.6551   -0.1163 H   0  0
   24.3280   -4.3002    0.4809 H   0  0
   24.7553   -8.5792    0.4137 H   0  0
   25.7593   -2.9503   -0.7843 H   0  0
   27.0024   -3.6512   -1.8024 H   0  0
   27.3455   -3.2846   -0.0784 H   0  0
   27.8825   -8.9312    0.0288 H   0  0
   27.6950   -8.5873   -1.7139 H   0  0
   26.4938   -9.5613   -0.8785 H   0  0
   31.1478   -4.5085    0.7960 H   0  0
   22.7590   -7.6515    1.2963 H   0  0
   23.1757   -6.2395    2.2738 H   0  0
   19.7720   -5.4199   -1.6005 H   0  0
   20.5225   -2.1873    1.7641 H   0  0
   19.0166   -0.3053    1.7702 H   0  0
   16.7920   -2.0364   -1.4903 H   0  0
   18.2959   -3.9324   -1.5219 H   0  0
  1 33  1  0
  1 34  1  0
  1 35  1  0
  2  1  1  0
  2 13  1  0
  3  2  1  0
  3 36  1  0
  3 37  1  0
  3 38  1  0
  4  5  2  0
  4 39  1  0
  5  6  1  0
  5 16  1  0
  6  7  2  0
  6 40  1  0
  7  8  1  0
  7 11  1  0
  8  9  2  0
  8 12  1  0
  9  4  1  0
  9 10  1  0
 10 41  1  0
 10 42  1  0
 10 43  1  0
 11 44  1  0
 11 45  1  0
 11 46  1  0
 12  2  1  0
 13 14  1  0
 13 15  2  0
 14 47  1  0
 16 17  1  0
 16 48  1  0
 16 49  1  0
 17 18  1  0
 18 19  1  0
 18 22  2  0
 19 20  1  0
 19 23  1  0
 20 21  2  0
 20 50  1  0
 21 17  1  0
 23 24  2  0
 24 25  1  0
 24 51  1  0
 25 26  2  0
 25 52  1  0
 26 27  1  0
 26 29  1  0
 27 28  2  0
 27 53  1  0
 28 23  1  0
 28 54  1  0
 29 30  1  0
 29 31  1  0
 29 32  1  0
M  END
> <Name>
CHEMBL5078556

> <Clean Energy>
71.480301

> <chembl_id>
CHEMBL5078556

> <chembl_pref_name>
None

> <efficacy>
1.26

> <Forcefield>
MMFF

> <ForcefieldBase>
MMFF

> <ForcefieldFFML>
<?xml version="1.0" encoding="UTF-8"?>
<!DOCTYPE ffml SYSTEM "Ffml.dtd">
<ffml version="1.0">
<forcefield name="MMFF" derivedFrom="MMFF" base="MMFF">
<atomTypes>
<atomType
name="C100"
element="C"
mass="12.011"
annotation=""/>
<atomType
name="O101"
element="O"
mass="16"
annotation=""/>
<atomType
name="N102"
element="N"
mass="14.007"
annotation=""/>
<atomType
name="F103"
element="F"
mass="18.998"
annotation=""/>
<atomType
name="H104"
element="H"
mass="1.008"
annotation=""/>
</atomTypes>
<parameters>
</parameters>
</forcefield>
</ffml>

> <Initial Potential Energy>
242.78923

> <Initial RMS Gradient>
30.57631

> <Minimization Criteria>
STEEPD> Minimization exiting with gradient tolerance ( 3.0000000) satisfied.

> <CHARMm Energy>
121.57051

> <Potential Energy>
121.57051

> <RMS Gradient>
0.07752

> <Bond Energy>
7.22122

> <Angle Energy>
29.00756

> <STRBend>
0.07186

> <Dihedral Energy>
8.54994

> <OOPLane>
0.10351

> <Van der Waals Energy>
54.14059

> <Electrostatic Energy>
22.47583

> <Hydrogen Bond Energy>
0

> <Solvation Free Energy>
0

> <HasGasteigerCharges>
true

> <REMARK99>
REMARK  99  MacroMolecule created from Mol2 file
REMARK  99  CHEMBL5078556
REMARK  99  PROTEIN
REMARK  99  GASTEIGER
REMARK  99
REMARK  99

$$$$
CHEMBL282686
  SciTegic05292516403D

 52 53  0  0  0  0            999 V2000
   -7.8276   -2.6010    0.1701 S   0  0
    7.3266   -3.7544   -0.6628 C   0  0
   -6.6146   -2.1728    1.1707 O   0  0
   -7.4296   -3.7439   -0.6277 O   0  0
   -8.4207   -1.4185   -0.4219 O   0  0
    6.3068   -2.6541   -0.3823 C   0  0  2  0  0  0
    7.0634   -4.8459   -1.1447 O   0  0
    5.7016   -2.2010   -1.7149 C   0  0
   -5.4452   -1.6146    0.7214 C   0  0
    4.3285   -1.6028   -1.5309 C   0  0
   -8.9295   -3.1827    1.4326 C   0  0
    8.5862   -3.3879   -0.3166 O   0  0
    1.7722   -0.5204   -1.0885 C   0  0
   -3.0022   -0.3858    0.0481 C   0  0
    7.0337   -1.5674    0.2405 O   0  0
    4.1272   -0.2223   -1.6125 C   0  0
    3.2377   -2.4366   -1.2461 C   0  0
   -4.9783   -1.6571   -0.5912 C   0  0
   -4.6753   -0.9808    1.7004 C   0  0
    2.8549    0.3104   -1.3910 C   0  0
    1.9681   -1.8986   -1.0233 C   0  0
   -3.7640   -1.0465   -0.9249 C   0  0
   -3.4660   -0.3658    1.3681 C   0  0
    0.5918    0.1350   -0.8806 O   0  0
   -0.5472   -0.6539   -0.5286 C   0  0
   -1.7173    0.3060   -0.3275 C   0  0
    6.3126   -0.9980    1.3368 C   0  0
    7.1112    0.1748    1.8693 C   0  0
    5.5769   -3.0811    0.3169 H   0  0
    6.3605   -1.4704   -2.2014 H   0  0
    5.6042   -3.0392   -2.4169 H   0  0
   -9.8452   -3.5312    0.9505 H   0  0
   -9.1563   -2.3590    2.1122 H   0  0
   -8.4529   -4.0067    1.9670 H   0  0
    8.5465   -2.4686    0.0396 H   0  0
    4.9552    0.4475   -1.8370 H   0  0
    3.3788   -3.5159   -1.1953 H   0  0
   -5.5397   -2.1505   -1.3808 H   0  0
   -5.0335   -0.9448    2.7274 H   0  0
    2.7057    1.3858   -1.4526 H   0  0
    1.1558   -2.5833   -0.8039 H   0  0
   -3.4202   -1.0808   -1.9575 H   0  0
   -2.8994    0.1415    2.1460 H   0  0
   -0.7770   -1.3614   -1.3345 H   0  0
   -0.3553   -1.2029    0.4017 H   0  0
   -1.4518    1.0500    0.4353 H   0  0
   -1.8768    0.8943   -1.2411 H   0  0
    5.3261   -0.6569    1.0123 H   0  0
    6.1921   -1.7519    2.1224 H   0  0
    6.6015    0.6413    2.7169 H   0  0
    7.2581    0.9272    1.0873 H   0  0
    8.1065   -0.1499    2.1901 H   0  0
  2  6  1  0
  3  1  1  0
  4  1  2  0
  5  1  2  0
  6  8  1  0
  6 15  1  0
  6 29  1  0
  7  2  2  0
  8 10  1  0
  8 30  1  0
  8 31  1  0
  9  3  1  0
 10 17  2  0
 11  1  1  0
 11 32  1  0
 11 33  1  0
 11 34  1  0
 12  2  1  0
 12 35  1  0
 13 24  1  0
 14 22  2  0
 14 23  1  0
 16 10  1  0
 16 20  2  0
 16 36  1  0
 17 21  1  0
 17 37  1  0
 18  9  2  0
 18 38  1  0
 19  9  1  0
 19 39  1  0
 20 13  1  0
 20 40  1  0
 21 13  2  0
 21 41  1  0
 22 18  1  0
 22 42  1  0
 23 19  2  0
 23 43  1  0
 24 25  1  0
 25 26  1  0
 25 44  1  0
 25 45  1  0
 26 14  1  0
 26 46  1  0
 26 47  1  0
 27 15  1  0
 27 48  1  0
 27 49  1  0
 28 27  1  0
 28 50  1  0
 28 51  1  0
 28 52  1  0
M  END
> <Name>
CHEMBL282686

> <Clean Energy>
98.0681

> <chembl_id>
CHEMBL282686

> <chembl_pref_name>
TESAGLITAZAR

> <efficacy>
1.085

> <Forcefield>
MMFF

> <ForcefieldBase>
MMFF

> <ForcefieldFFML>
<?xml version="1.0" encoding="UTF-8"?>
<!DOCTYPE ffml SYSTEM "Ffml.dtd">
<ffml version="1.0">
<forcefield name="MMFF" derivedFrom="MMFF" base="MMFF">
<atomTypes>
<atomType
name="S100"
element="S"
mass="32.066"
annotation=""/>
<atomType
name="C101"
element="C"
mass="12.011"
annotation=""/>
<atomType
name="O102"
element="O"
mass="16"
annotation=""/>
<atomType
name="H103"
element="H"
mass="1.008"
annotation=""/>
</atomTypes>
<parameters>
</parameters>
</forcefield>
</ffml>

> <Initial Potential Energy>
337.85311

> <Initial RMS Gradient>
31.74345

> <Minimization Criteria>
CONJUG> Minimization exiting with gradient tolerance ( 0.0100000) satisfied.

> <CHARMm Energy>
66.82812

> <Potential Energy>
66.82812

> <RMS Gradient>
0.00955

> <Bond Energy>
4.15496

> <Angle Energy>
13.90203

> <STRBend>
0.36559

> <Dihedral Energy>
2.29362

> <OOPLane>
0.01173

> <Van der Waals Energy>
49.18293

> <Electrostatic Energy>
-3.08273

> <Hydrogen Bond Energy>
0

> <Solvation Free Energy>
0

> <HasGasteigerCharges>
true

> <REMARK99>
REMARK  99  MacroMolecule created from Mol2 file
REMARK  99  CHEMBL282686
REMARK  99  PROTEIN
REMARK  99  GASTEIGER
REMARK  99
REMARK  99

$$$$
CHEMBL2104753
  SciTegic05292516403D

 47 50  0  0  0  0            999 V2000
    9.5016   -1.6985    1.6176 N   0  0
   -0.8315   -2.4481   -1.0241 C   0  0
   -1.4959   -2.3086    0.1783 N   0  0
   -1.5993   -3.0787   -1.8994 N   0  0
   10.2650   -1.0219    0.7299 C   0  0
   -2.7145   -2.9386    0.0766 C   0  0
    8.1502   -1.7623    1.4204 C   0  0
    9.2668   -0.2944   -0.4953 S   0  0
   -2.7518   -3.4024   -1.2320 C   0  0
    7.7164   -1.0194    0.1687 C   0  0  1  0  0  0
   -3.7721   -3.1479    0.9751 C   0  0
    0.5533   -1.9240   -1.2925 C   0  0
   11.4773   -0.9282    0.7608 O   0  0
    7.4007   -2.3665    2.1768 O   0  0
    7.0828   -1.9682   -0.8553 C   0  0
   -3.8796   -4.0993   -1.6844 C   0  0
    1.4270   -2.4994   -0.3226 O   0  0
   -4.8964   -3.8517    0.5172 C   0  0
    5.5781   -2.0753   -0.7179 C   0  0
    2.7672   -2.2890   -0.5105 C   0  0
   -1.0094   -1.6288    1.3536 C   0  0
   -4.9461   -4.3188   -0.7984 C   0  0
    4.7365   -1.2383   -1.4633 C   0  0
    4.9948   -3.0083    0.1455 C   0  0
    3.6026   -3.1074    0.2508 C   0  0
    3.3413   -1.3455   -1.3627 C   0  0
   -5.8812   -4.0134    1.4587 O   0  0
   -7.0189   -4.7750    1.0755 C   0  0
    9.9474   -2.1585    2.3976 H   0  0
    7.0528   -0.1969    0.4547 H   0  0
   -3.7258   -2.7905    1.9986 H   0  0
    0.8517   -2.2204   -2.3055 H   0  0
    0.5474   -0.8311   -1.2088 H   0  0
    7.2884   -1.6320   -1.8808 H   0  0
    7.5158   -2.9752   -0.7828 H   0  0
   -3.9191   -4.4643   -2.7050 H   0  0
   -1.8526   -1.2582    1.9413 H   0  0
   -0.3935   -0.7775    1.0545 H   0  0
   -0.4222   -2.3393    1.9405 H   0  0
   -5.8023   -4.8642   -1.1788 H   0  0
    5.1576   -0.4995   -2.1430 H   0  0
    5.6090   -3.6749    0.7472 H   0  0
    3.1712   -3.8432    0.9253 H   0  0
    2.7415   -0.6731   -1.9673 H   0  0
   -7.6853   -4.8388    1.9413 H   0  0
   -6.7375   -5.7960    0.7972 H   0  0
   -7.5695   -4.2812    0.2682 H   0  0
  1 29  1  0
  2 12  1  0
  3  2  1  0
  4  2  2  0
  5  1  1  0
  6  3  1  0
  6  9  1  0
  7  1  1  0
  8  5  1  0
  9  4  1  0
 10  7  1  0
 10  8  1  0
 10 30  1  0
 11  6  2  0
 11 31  1  0
 12 17  1  0
 12 32  1  0
 12 33  1  0
 13  5  2  0
 14  7  2  0
 15 10  1  0
 15 34  1  0
 15 35  1  0
 16  9  2  0
 16 36  1  0
 17 20  1  0
 18 11  1  0
 18 22  2  0
 19 15  1  0
 20 25  2  0
 20 26  1  0
 21  3  1  0
 21 37  1  0
 21 38  1  0
 21 39  1  0
 22 16  1  0
 22 40  1  0
 23 19  1  0
 23 41  1  0
 24 19  2  0
 24 42  1  0
 25 24  1  0
 25 43  1  0
 26 23  2  0
 26 44  1  0
 27 18  1  0
 28 27  1  0
 28 45  1  0
 28 46  1  0
 28 47  1  0
M  END
> <Name>
CHEMBL2104753

> <Clean Energy>
49.8922

> <chembl_id>
CHEMBL2104753

> <chembl_pref_name>
RIVOGLITAZONE

> <efficacy>
1.26

> <Forcefield>
MMFF

> <ForcefieldBase>
MMFF

> <ForcefieldFFML>
<?xml version="1.0" encoding="UTF-8"?>
<!DOCTYPE ffml SYSTEM "Ffml.dtd">
<ffml version="1.0">
<forcefield name="MMFF" derivedFrom="MMFF" base="MMFF">
<atomTypes>
<atomType
name="N100"
element="N"
mass="14.007"
annotation=""/>
<atomType
name="C101"
element="C"
mass="12.011"
annotation=""/>
<atomType
name="S102"
element="S"
mass="32.066"
annotation=""/>
<atomType
name="O103"
element="O"
mass="16"
annotation=""/>
<atomType
name="H104"
element="H"
mass="1.008"
annotation=""/>
</atomTypes>
<parameters>
</parameters>
</forcefield>
</ffml>

> <Initial Potential Energy>
67.74594

> <Initial RMS Gradient>
29.13291

> <Minimization Criteria>
STEEPD> Minimization exiting with gradient tolerance ( 3.0000000) satisfied.

> <CHARMm Energy>
-4.99216

> <Potential Energy>
-4.99216

> <RMS Gradient>
0.03412

> <Bond Energy>
4.73387

> <Angle Energy>
17.46402

> <STRBend>
-0.55148

> <Dihedral Energy>
7.32347

> <OOPLane>
0.01172

> <Van der Waals Energy>
44.14246

> <Electrostatic Energy>
-78.11621

> <Hydrogen Bond Energy>
0

> <Solvation Free Energy>
0

> <HasGasteigerCharges>
true

> <REMARK99>
REMARK  99  MacroMolecule created from Mol2 file
REMARK  99  CHEMBL2104753
REMARK  99  PROTEIN
REMARK  99  GASTEIGER
REMARK  99
REMARK  99

$$$$
CHEMBL3707395
  SciTegic05292516403D

 51 52  0  0  0  0            999 V2000
   -4.5545    4.4180    0.2472 C   0  0
   -5.7411    3.7033    0.4357 C   0  0
   -5.7587    2.3173    0.2600 C   0  0
   -4.5810    1.6510   -0.0949 C   0  0
   -3.3945    2.3642   -0.2873 C   0  0
   -3.3737    3.7521   -0.1046 C   0  0
   -2.1463    4.5687   -0.3048 C   0  0
   -0.8394    3.9382    0.0305 C   0  0
   -2.2555    5.7284   -0.6945 O   0  0
    0.3144    4.5418   -0.2923 C   0  0
    1.6356    3.9969    0.0573 C   0  0
    1.9385    2.6320   -0.0376 C   0  0
    3.2094    2.1392    0.3120 C   0  0
    4.2066    3.0475    0.7005 C   0  0
    3.9115    4.4135    0.8457 C   0  0
    2.6334    4.8771    0.4895 C   0  0
    4.9301    5.4003    1.3418 C   0  0
    5.4495    2.5981    1.0515 O   0  0
    3.4641    0.6600    0.2452 C   0  0
    6.4329    2.4167    0.0048 C   0  0
    6.8804    0.9294    0.0487 C   0  0
    7.6741    3.2149    0.4507 C   0  0
    6.0381    2.9254   -1.3940 C   0  0
    6.9534    0.2719   -1.1350 O   0  0
    7.2220    0.3503    1.0761 O   0  0
   -7.2518    1.3729    0.4957 S   0  0
   -8.2707    2.0979   -0.8155 C   0  0
   -4.5548    5.4988    0.3804 H   0  0
   -6.6425    4.2393    0.7247 H   0  0
   -4.5983    0.5718   -0.2380 H   0  0
   -2.5067    1.8208   -0.5979 H   0  0
   -0.8549    3.0046    0.5795 H   0  0
    0.3073    5.5037   -0.8023 H   0  0
    1.1777    1.9328   -0.3784 H   0  0
    2.4063    5.9386    0.5800 H   0  0
    4.4434    6.2650    1.8061 H   0  0
    5.5446    5.7561    0.5099 H   0  0
    5.5742    4.9550    2.1065 H   0  0
    3.9625    0.4047   -0.6943 H   0  0
    2.5269    0.0956    0.3006 H   0  0
    4.0806    0.3306    1.0874 H   0  0
    8.5326    3.0238   -0.2029 H   0  0
    7.9647    2.9557    1.4759 H   0  0
    7.4761    4.2914    0.4483 H   0  0
    6.8669    2.8237   -2.1043 H   0  0
    5.7600    3.9846   -1.3764 H   0  0
    5.1848    2.3747   -1.8031 H   0  0
    6.5861    0.7361   -1.9076 H   0  0
   -9.2196    1.5575   -0.8698 H   0  0
   -7.7680    2.0143   -1.7831 H   0  0
   -8.4855    3.1492   -0.6064 H   0  0
  1  2  1  0
  1  6  2  0
  1 28  1  0
  2  3  2  0
  2 29  1  0
  3  4  1  0
  3 26  1  0
  4  5  2  0
  4 30  1  0
  5  6  1  0
  5 31  1  0
  6  7  1  0
  7  8  1  0
  7  9  2  0
  8 10  2  0
  8 32  1  0
 10 11  1  0
 10 33  1  0
 11 12  1  0
 11 16  2  0
 12 13  2  0
 12 34  1  0
 13 14  1  0
 13 19  1  0
 14 15  2  0
 14 18  1  0
 15 16  1  0
 15 17  1  0
 16 35  1  0
 17 36  1  0
 17 37  1  0
 17 38  1  0
 18 20  1  0
 19 39  1  0
 19 40  1  0
 19 41  1  0
 20 21  1  0
 20 22  1  0
 20 23  1  0
 21 24  1  0
 21 25  2  0
 22 42  1  0
 22 43  1  0
 22 44  1  0
 23 45  1  0
 23 46  1  0
 23 47  1  0
 24 48  1  0
 26 27  1  0
 27 49  1  0
 27 50  1  0
 27 51  1  0
M  END
> <Name>
CHEMBL3707395

> <Clean Energy>
33.5112

> <chembl_id>
CHEMBL3707395

> <chembl_pref_name>
ELAFIBRANOR

> <efficacy>
1.05

> <Forcefield>
MMFF

> <ForcefieldBase>
MMFF

> <ForcefieldFFML>
<?xml version="1.0" encoding="UTF-8"?>
<!DOCTYPE ffml SYSTEM "Ffml.dtd">
<ffml version="1.0">
<forcefield name="MMFF" derivedFrom="MMFF" base="MMFF">
<atomTypes>
<atomType
name="C100"
element="C"
mass="12.011"
annotation=""/>
<atomType
name="O101"
element="O"
mass="16"
annotation=""/>
<atomType
name="S102"
element="S"
mass="32.066"
annotation=""/>
<atomType
name="H103"
element="H"
mass="1.008"
annotation=""/>
</atomTypes>
<parameters>
</parameters>
</forcefield>
</ffml>

> <Initial Potential Energy>
183.47874

> <Initial RMS Gradient>
25.86643

> <Minimization Criteria>
STEEPD> Minimization exiting with gradient tolerance ( 3.0000000) satisfied.

> <CHARMm Energy>
95.03464

> <Potential Energy>
95.03464

> <RMS Gradient>
0.02254

> <Bond Energy>
6.4797

> <Angle Energy>
14.69285

> <STRBend>
1.49566

> <Dihedral Energy>
19.18087

> <OOPLane>
0.20332

> <Van der Waals Energy>
53.76408

> <Electrostatic Energy>
-0.78184

> <Hydrogen Bond Energy>
0

> <Solvation Free Energy>
0

> <HasGasteigerCharges>
true

> <REMARK99>
REMARK  99  MacroMolecule created from Mol2 file
REMARK  99  CHEMBL3707395
REMARK  99  PROTEIN
REMARK  99  GASTEIGER
REMARK  99
REMARK  99

$$$$
CHEMBL4589453
  SciTegic05292516403D

 73 76  0  0  0  0            999 V2000
   15.0042  -11.4338   -0.1366 N   0  0
   14.9297  -12.6840   -0.4730 C   0  0
   15.9511  -13.3698   -1.1138 N   0  0
   17.0106  -12.6318   -1.6117 C   0  0
   17.2107  -11.2825   -1.0292 C   0  0
   16.1855  -10.7693   -0.3306 C   0  0
   16.2327   -9.4317    0.3593 C   0  0
   17.7763  -13.0407   -2.4846 O   0  0
   18.5510  -10.6601   -1.2916 C   0  0
   19.6326  -11.3663   -0.4928 C   0  0
   20.8010  -10.6595   -0.5867 O   0  0
   19.5044  -12.4160    0.1291 O   0  0
   13.6443  -13.4429   -0.1549 C   0  0
   12.5945  -12.6199    0.5934 C   0  0
   11.3435  -13.4485    0.8845 C   0  0
   10.2964  -12.6337    1.6269 C   0  0
   15.8616  -14.7853   -1.5526 C   0  0
   16.9127  -15.7677   -1.0271 C   0  0
   17.4260  -16.7680   -1.8797 C   0  0
   18.4078  -17.6919   -1.4528 C   0  0
   18.9130  -17.6601   -0.1481 C   0  0
   18.3303  -16.7123    0.7253 C   0  0
   17.3501  -15.7854    0.2992 C   0  0
   20.2011  -18.3255    0.2093 C   0  0
   20.4930  -19.7050    0.3947 C   0  0
   21.8249  -20.0830    0.7333 C   0  0
   22.8591  -19.1538    0.8503 C   0  0
   22.5908  -17.8146    0.6439 C   0  0
   21.2907  -17.4157    0.3336 C   0  0
   19.5104  -20.8273    0.3195 C   0  0
   18.2218  -20.7542    0.3601 N   0  0
   17.7564  -22.1256    0.3323 O   0  0
   18.8733  -22.9259    0.2858 C   0  0
   19.9409  -22.1103    0.2315 N   0  0
   18.8998  -24.1505    0.3042 O   0  0
   21.9046  -11.2985    0.0704 C   0  0
   23.1399  -10.4265   -0.1275 C   0  0
   24.3698  -11.0309    0.5440 C   0  0
   25.5986  -10.1582    0.3449 C   0  0
   17.2497   -9.0862    0.5607 H   0  0
   15.7290   -9.4865    1.3314 H   0  0
   15.7200   -8.6780   -0.2469 H   0  0
   18.8036  -10.7261   -2.3559 H   0  0
   18.5627   -9.5992   -1.0261 H   0  0
   13.2174  -13.7961   -1.1011 H   0  0
   13.9083  -14.3210    0.4465 H   0  0
   13.0167  -12.2496    1.5359 H   0  0
   12.3204  -11.7395   -0.0012 H   0  0
   10.9136  -13.8166   -0.0543 H   0  0
   11.6093  -14.3257    1.4859 H   0  0
    9.4108  -13.2453    1.8255 H   0  0
    9.9846  -11.7656    1.0373 H   0  0
   10.6848  -12.2764    2.5860 H   0  0
   14.8865  -15.2138   -1.3116 H   0  0
   15.9236  -14.7668   -2.6489 H   0  0
   17.0974  -16.8152   -2.9172 H   0  0
   18.8253  -18.3839   -2.1811 H   0  0
   18.6970  -16.6335    1.7485 H   0  0
   16.9754  -15.0550    1.0131 H   0  0
   22.0983  -21.1143    0.9451 H   0  0
   23.8646  -19.4815    1.1084 H   0  0
   23.3814  -17.0731    0.7258 H   0  0
   21.1160  -16.3492    0.1710 H   0  0
   20.8588  -22.5209    0.1705 H   0  0
   21.6848  -11.4002    1.1398 H   0  0
   22.0701  -12.2894   -0.3689 H   0  0
   23.3206  -10.2920   -1.2014 H   0  0
   22.9435   -9.4233    0.2713 H   0  0
   24.1857  -11.1531    1.6177 H   0  0
   24.5663  -12.0280    0.1330 H   0  0
   26.4676  -10.6101    0.8334 H   0  0
   25.4467   -9.1630    0.7747 H   0  0
   25.8291  -10.0420   -0.7189 H   0  0
  1  2  2  0
  1  6  1  0
  2  3  1  0
  2 13  1  0
  3  4  1  0
  3 17  1  0
  4  5  1  0
  4  8  2  0
  5  6  2  0
  5  9  1  0
  6  7  1  0
  7 40  1  0
  7 41  1  0
  7 42  1  0
  9 10  1  0
  9 43  1  0
  9 44  1  0
 10 11  1  0
 10 12  2  0
 11 36  1  0
 13 14  1  0
 13 45  1  0
 13 46  1  0
 14 15  1  0
 14 47  1  0
 14 48  1  0
 15 16  1  0
 15 49  1  0
 15 50  1  0
 16 51  1  0
 16 52  1  0
 16 53  1  0
 17 18  1  0
 17 54  1  0
 17 55  1  0
 18 19  2  0
 19 20  1  0
 19 56  1  0
 20 21  2  0
 20 57  1  0
 21 22  1  0
 21 24  1  0
 22 23  2  0
 22 58  1  0
 23 18  1  0
 23 59  1  0
 24 25  2  0
 25 26  1  0
 25 30  1  0
 26 27  2  0
 26 60  1  0
 27 28  1  0
 27 61  1  0
 28 29  2  0
 28 62  1  0
 29 24  1  0
 29 63  1  0
 30 31  2  0
 31 32  1  0
 32 33  1  0
 33 34  1  0
 33 35  2  0
 34 30  1  0
 34 64  1  0
 36 37  1  0
 36 65  1  0
 36 66  1  0
 37 38  1  0
 37 67  1  0
 37 68  1  0
 38 39  1  0
 38 69  1  0
 38 70  1  0
 39 71  1  0
 39 72  1  0
 39 73  1  0
M  END
> <Name>
CHEMBL4589453

> <Clean Energy>
49.561501

> <chembl_id>
CHEMBL4589453

> <chembl_pref_name>
None

> <efficacy>
1.101614435

> <Forcefield>
MMFF

> <ForcefieldBase>
MMFF

> <ForcefieldFFML>
<?xml version="1.0" encoding="UTF-8"?>
<!DOCTYPE ffml SYSTEM "Ffml.dtd">
<ffml version="1.0">
<forcefield name="MMFF" derivedFrom="MMFF" base="MMFF">
<atomTypes>
<atomType
name="N100"
element="N"
mass="14.007"
annotation=""/>
<atomType
name="C101"
element="C"
mass="12.011"
annotation=""/>
<atomType
name="O102"
element="O"
mass="16"
annotation=""/>
<atomType
name="H103"
element="H"
mass="1.008"
annotation=""/>
</atomTypes>
<parameters>
</parameters>
</forcefield>
</ffml>

> <Initial Potential Energy>
200.08464

> <Initial RMS Gradient>
29.947

> <Minimization Criteria>
CONJUG> Minimization exiting with gradient tolerance ( 0.0100000) satisfied.

> <CHARMm Energy>
-11.14328

> <Potential Energy>
-11.14328

> <RMS Gradient>
0.00737

> <Bond Energy>
12.34056

> <Angle Energy>
27.43886

> <STRBend>
1.3205

> <Dihedral Energy>
-3.26135

> <OOPLane>
0.64825

> <Van der Waals Energy>
66.77222

> <Electrostatic Energy>
-116.40232

> <Hydrogen Bond Energy>
0

> <Solvation Free Energy>
0

> <HasGasteigerCharges>
true

> <REMARK99>
REMARK  99  MacroMolecule created from Mol2 file
REMARK  99  CHEMBL4589453
REMARK  99  PROTEIN
REMARK  99  GASTEIGER
REMARK  99
REMARK  99

$$$$
CHEMBL165484
  SciTegic05292516403D

 64 67  0  0  0  0            999 V2000
   -1.2997   -1.2537    0.6420 N   0  0
   -1.3760   -2.6515    0.8140 C   0  0
   -2.3933   -0.3835    0.4255 C   0  0
   10.4710    1.1858    0.5264 C   0  0
    9.6190    0.0067    0.0502 C   0  0  1  0  0  0
   -3.5092   -0.7134   -0.3744 C   0  0
   -1.8983   -3.4684   -0.1989 C   0  0
   10.0448    2.0964    1.2223 O   0  0
    8.7519    0.4943   -1.1176 C   0  0
   -2.4454   -2.8357   -1.4480 C   0  0
   -3.6896   -2.0109   -1.1371 C   0  0
    0.0460   -0.6600    0.7897 C   0  0
    7.3276    0.0084   -1.0027 C   0  0
   11.7425    1.1321    0.0619 O   0  0
    4.6660   -0.8633   -0.7669 C   0  0
   10.4886   -1.0416   -0.4235 O   0  0
    6.9422   -1.2258   -1.5345 C   0  0
    6.3756    0.7927   -0.3396 C   0  0
    5.6165   -1.6535   -1.4185 C   0  0
    5.0529    0.3615   -0.2248 C   0  0
    1.1008   -1.3758   -0.0630 C   0  0
   -0.8853   -3.2593    1.9827 C   0  0
   -2.4160    0.8703    1.0815 C   0  0
    3.4015   -1.3857   -0.7287 O   0  0
   -4.5781    0.2079   -0.4921 C   0  0
   -1.8937   -4.8637   -0.0494 C   0  0
    2.4273   -0.6314   -0.0068 C   0  0
   10.8941   -1.9328    0.6223 C   0  0
   -0.8967   -4.6466    2.1338 C   0  0
   -3.4722    1.7738    0.9428 C   0  0
   11.8784   -2.9288    0.0431 C   0  0
   -4.5564    1.4420    0.1500 C   0  0
   -1.3918   -5.4488    1.1116 C   0  0
    9.0245   -0.3510    0.8999 H   0  0
    8.7289    1.5906   -1.1753 H   0  0
    9.1631    0.1578   -2.0781 H   0  0
   -1.6711   -2.2288   -1.9332 H   0  0
   -2.7153   -3.6184   -2.1683 H   0  0
   -4.4162   -2.6250   -0.5879 H   0  0
   -4.1484   -1.7667   -2.1049 H   0  0
    0.0435    0.3873    0.4607 H   0  0
    0.3424   -0.6539    1.8463 H   0  0
   11.8516    0.3160   -0.4781 H   0  0
    7.6672   -1.8543   -2.0482 H   0  0
    6.6511    1.7555    0.0878 H   0  0
    5.3207   -2.6100   -1.8426 H   0  0
    4.3545    1.0127    0.2894 H   0  0
    1.2609   -2.4065    0.2736 H   0  0
    0.7684   -1.4491   -1.1062 H   0  0
   -0.5083   -2.6473    2.7973 H   0  0
   -1.6154    1.1508    1.7609 H   0  0
   -5.4428   -0.0441   -1.1026 H   0  0
   -2.2820   -5.5016   -0.8393 H   0  0
    2.7404   -0.5248    1.0391 H   0  0
    2.3030    0.3575   -0.4649 H   0  0
   11.3661   -1.3710    1.4350 H   0  0
   10.0153   -2.4590    1.0102 H   0  0
   -0.5304   -5.1002    3.0508 H   0  0
   -3.4442    2.7244    1.4676 H   0  0
   12.2126   -3.6369    0.8069 H   0  0
   12.7528   -2.4119   -0.3669 H   0  0
   11.4226   -3.4872   -0.7813 H   0  0
   -5.3872    2.1323    0.0383 H   0  0
   -1.3948   -6.5296    1.2209 H   0  0
  2  1  1  0
  3  1  1  0
  4  5  1  0
  5  9  1  0
  5 34  1  0
  6  3  2  0
  7  2  2  0
  8  4  2  0
  9 13  1  0
  9 35  1  0
  9 36  1  0
 10  7  1  0
 10 37  1  0
 10 38  1  0
 11  6  1  0
 11 10  1  0
 11 39  1  0
 11 40  1  0
 12  1  1  0
 12 41  1  0
 12 42  1  0
 13 18  2  0
 14  4  1  0
 14 43  1  0
 15 24  1  0
 16  5  1  0
 17 13  1  0
 17 19  2  0
 17 44  1  0
 18 20  1  0
 18 45  1  0
 19 15  1  0
 19 46  1  0
 20 15  2  0
 20 47  1  0
 21 12  1  0
 21 48  1  0
 21 49  1  0
 22  2  1  0
 22 50  1  0
 23  3  1  0
 23 51  1  0
 24 27  1  0
 25  6  1  0
 25 52  1  0
 26  7  1  0
 26 33  2  0
 26 53  1  0
 27 21  1  0
 27 54  1  0
 27 55  1  0
 28 16  1  0
 28 56  1  0
 28 57  1  0
 29 22  2  0
 29 58  1  0
 30 23  2  0
 30 59  1  0
 31 28  1  0
 31 60  1  0
 31 61  1  0
 31 62  1  0
 32 25  2  0
 32 30  1  0
 32 63  1  0
 33 29  1  0
 33 64  1  0
M  END
> <Name>
CHEMBL165484

> <Clean Energy>
42.795399

> <chembl_id>
CHEMBL165484

> <chembl_pref_name>
None

> <efficacy>
1.087

> <Forcefield>
MMFF

> <ForcefieldBase>
MMFF

> <ForcefieldFFML>
<?xml version="1.0" encoding="UTF-8"?>
<!DOCTYPE ffml SYSTEM "Ffml.dtd">
<ffml version="1.0">
<forcefield name="MMFF" derivedFrom="MMFF" base="MMFF">
<atomTypes>
<atomType
name="N100"
element="N"
mass="14.007"
annotation=""/>
<atomType
name="C101"
element="C"
mass="12.011"
annotation=""/>
<atomType
name="O102"
element="O"
mass="16"
annotation=""/>
<atomType
name="H103"
element="H"
mass="1.008"
annotation=""/>
</atomTypes>
<parameters>
</parameters>
</forcefield>
</ffml>

> <Initial Potential Energy>
217.37748

> <Initial RMS Gradient>
27.66153

> <Minimization Criteria>
STEEPD> Minimization exiting with gradient tolerance ( 3.0000000) satisfied.

> <CHARMm Energy>
96.96324

> <Potential Energy>
96.96324

> <RMS Gradient>
0.1072

> <Bond Energy>
7.41847

> <Angle Energy>
16.85581

> <STRBend>
1.05995

> <Dihedral Energy>
15.43145

> <OOPLane>
0.08572

> <Van der Waals Energy>
76.06382

> <Electrostatic Energy>
-19.95199

> <Hydrogen Bond Energy>
0

> <Solvation Free Energy>
0

> <HasGasteigerCharges>
true

> <REMARK99>
REMARK  99  MacroMolecule created from Mol2 file
REMARK  99  CHEMBL165484
REMARK  99  PROTEIN
REMARK  99  GASTEIGER
REMARK  99
REMARK  99

$$$$
CHEMBL4556396
  SciTegic05292516403D

 76 81  0  0  0  0            999 V2000
   40.7315  -22.6838    0.1132 C   0  0
   39.4432  -22.6066    0.1720 N   0  0
   38.9695  -23.9736    0.1651 O   0  0
   40.0799  -24.7807    0.1094 C   0  0
   41.1520  -23.9726    0.0299 N   0  0
   41.1160  -13.0815   -1.2759 C   0  0
   41.3503  -14.4235   -1.1673 O   0  0
   42.4354  -14.5679   -0.3051 N   0  0
   42.7487  -13.3018    0.0010 C   0  0
   41.9603  -12.3433   -0.5857 N   0  0
   38.1360  -17.6054   -1.1806 C   0  0
   38.6429  -18.5823   -2.0622 C   0  0
   39.6341  -19.5120   -1.6680 C   0  0
   40.1579  -19.5077   -0.3698 C   0  0
   39.5915  -18.5746    0.5293 C   0  0
   38.6013  -17.6432    0.1368 C   0  0
   41.4461  -20.1871   -0.0403 C   0  0
   41.7233  -21.5676    0.1611 C   0  0
   43.0556  -21.9550    0.4872 C   0  0
   44.1050  -21.0398    0.5696 C   0  0
   43.8516  -19.7015    0.3411 C   0  0
   42.5506  -19.2901    0.0473 C   0  0
   37.0562  -16.6254   -1.6509 C   0  0
   37.2667  -15.1845   -1.3567 N   0  0
   38.2715  -14.5478   -2.0608 C   0  0
   38.6280  -13.1781   -1.6234 C   0  0
   37.7430  -12.5478   -0.8320 C   0  0
   36.5633  -13.1256   -0.4357 N   0  0
   36.3771  -14.3901   -0.6515 C   0  0
   38.8810  -15.0676   -2.9946 O   0  0
   35.1071  -15.0380   -0.1081 C   0  0
   34.2084  -14.0902    0.6877 C   0  0
   32.9618  -14.8092    1.2028 C   0  0
   32.0646  -13.8708    1.9940 C   0  0
   39.9580  -12.6739   -2.1161 C   0  0
   43.8930  -12.9782    0.9292 C   0  0
   40.0980  -26.0050    0.1423 O   0  0
   37.9764  -11.1534   -0.2547 C   0  0
   43.6723  -13.0989    2.4177 C   0  0
   43.8506  -11.7462    1.7950 C   0  0
   36.9669  -10.1513   -0.8206 C   0  0
   37.9250  -11.1654    1.2773 C   0  0
   42.0622  -24.3987   -0.0449 H   0  0
   38.2963  -18.6128   -3.0948 H   0  0
   40.0393  -20.1913   -2.4157 H   0  0
   39.9746  -18.5175    1.5479 H   0  0
   38.2294  -16.9338    0.8728 H   0  0
   43.3185  -22.9844    0.7172 H   0  0
   45.1094  -21.3799    0.8173 H   0  0
   44.6540  -18.9700    0.3950 H   0  0
   42.3884  -18.2235   -0.1291 H   0  0
   36.9600  -16.7054   -2.7418 H   0  0
   36.1086  -16.9805   -1.2397 H   0  0
   34.5437  -15.4421   -0.9576 H   0  0
   35.4016  -15.8776    0.5328 H   0  0
   34.7677  -13.6731    1.5345 H   0  0
   33.9088  -13.2447    0.0559 H   0  0
   32.3954  -15.2227    0.3603 H   0  0
   33.2543  -15.6506    1.8416 H   0  0
   31.1791  -14.4053    2.3521 H   0  0
   31.7284  -13.0337    1.3738 H   0  0
   32.5912  -13.4648    2.8636 H   0  0
   40.1381  -13.0047   -3.1466 H   0  0
   39.9490  -11.5810   -2.1953 H   0  0
   44.8588  -13.2916    0.5496 H   0  0
   38.9734  -10.7888   -0.5206 H   0  0
   42.6841  -13.3794    2.7674 H   0  0
   44.4804  -13.5136    3.0083 H   0  0
   44.7825  -11.2212    1.9732 H   0  0
   42.9855  -11.0948    1.7311 H   0  0
   37.1784   -9.1419   -0.4514 H   0  0
   35.9397  -10.4022   -0.5334 H   0  0
   37.0154  -10.1229   -1.9148 H   0  0
   38.1764  -10.1767    1.6769 H   0  0
   38.6446  -11.8831    1.6867 H   0  0
   36.9300  -11.4302    1.6517 H   0  0
  1  2  2  0
  2  3  1  0
  3  4  1  0
  4  5  1  0
  4 37  2  0
  5  1  1  0
  5 43  1  0
  6  7  1  0
  7  8  1  0
  8  9  2  0
  9 10  1  0
  9 36  1  0
 10  6  2  0
 11 12  2  0
 11 23  1  0
 12 13  1  0
 12 44  1  0
 13 14  2  0
 13 45  1  0
 14 15  1  0
 14 17  1  0
 15 16  2  0
 15 46  1  0
 16 11  1  0
 16 47  1  0
 17 18  2  0
 18  1  1  0
 18 19  1  0
 19 20  2  0
 19 48  1  0
 20 21  1  0
 20 49  1  0
 21 22  2  0
 21 50  1  0
 22 17  1  0
 22 51  1  0
 23 24  1  0
 23 52  1  0
 23 53  1  0
 24 25  1  0
 24 29  1  0
 25 26  1  0
 25 30  2  0
 26 27  2  0
 26 35  1  0
 27 28  1  0
 27 38  1  0
 28 29  2  0
 29 31  1  0
 31 32  1  0
 31 54  1  0
 31 55  1  0
 32 33  1  0
 32 56  1  0
 32 57  1  0
 33 34  1  0
 33 58  1  0
 33 59  1  0
 34 60  1  0
 34 61  1  0
 34 62  1  0
 35  6  1  0
 35 63  1  0
 35 64  1  0
 36 40  1  0
 36 65  1  0
 38 41  1  0
 38 42  1  0
 38 66  1  0
 39 36  1  0
 39 67  1  0
 39 68  1  0
 40 39  1  0
 40 69  1  0
 40 70  1  0
 41 71  1  0
 41 72  1  0
 41 73  1  0
 42 74  1  0
 42 75  1  0
 42 76  1  0
M  END
> <Name>
CHEMBL4556396

> <Clean Energy>
100.278

> <chembl_id>
CHEMBL4556396

> <chembl_pref_name>
None

> <efficacy>
0.968660969

> <Forcefield>
MMFF

> <ForcefieldBase>
MMFF

> <ForcefieldFFML>
<?xml version="1.0" encoding="UTF-8"?>
<!DOCTYPE ffml SYSTEM "Ffml.dtd">
<ffml version="1.0">
<forcefield name="MMFF" derivedFrom="MMFF" base="MMFF">
<atomTypes>
<atomType
name="C100"
element="C"
mass="12.011"
annotation=""/>
<atomType
name="N101"
element="N"
mass="14.007"
annotation=""/>
<atomType
name="O102"
element="O"
mass="16"
annotation=""/>
<atomType
name="H103"
element="H"
mass="1.008"
annotation=""/>
</atomTypes>
<parameters>
</parameters>
</forcefield>
</ffml>

> <Initial Potential Energy>
161.83469

> <Initial RMS Gradient>
27.5856

> <Minimization Criteria>
CONJUG> Minimization exiting with gradient tolerance ( 0.0100000) satisfied.

> <CHARMm Energy>
13.88779

> <Potential Energy>
13.88779

> <RMS Gradient>
0.00999

> <Bond Energy>
12.74554

> <Angle Energy>
27.89605

> <STRBend>
1.1741

> <Dihedral Energy>
7.0499

> <OOPLane>
0.64091

> <Van der Waals Energy>
62.21938

> <Electrostatic Energy>
-97.83809

> <Hydrogen Bond Energy>
0

> <Solvation Free Energy>
0

> <HasGasteigerCharges>
true

> <REMARK99>
REMARK  99  MacroMolecule created from Mol2 file
REMARK  99  CHEMBL4556396
REMARK  99  PROTEIN
REMARK  99  GASTEIGER
REMARK  99
REMARK  99

$$$$
CHEMBL4175728
  SciTegic05292516403D

 49 52  0  0  0  0            999 V2000
   35.7661   -4.6582    0.5982 C   0  0
   36.8845   -5.2329    1.1627 O   0  0
   38.0970   -4.6110    0.9487 C   0  0
   39.1407   -5.4101    0.4602 C   0  0
   39.5395   -2.6622    1.0537 C   0  0
   38.2959   -3.2650    1.2702 C   0  0
   40.5867   -3.4366    0.5322 C   0  0
   40.3799   -4.7847    0.2536 C   0  0
   41.6031   -5.2210   -0.2062 N   0  0
   42.4734   -4.1498   -0.2053 C   0  0
   41.8687   -3.0614    0.2335 N   0  0
   41.9275   -6.5723   -0.5972 C   0  0
   43.8986   -4.2116   -0.6556 C   0  0
   44.5760   -5.1382    0.1969 O   0  0
   45.9362   -5.0273    0.2597 C   0  0
   46.5187   -5.6075    1.3908 C   0  0
   47.9004   -5.5650    1.5848 C   0  0
   48.7128   -4.9375    0.6432 C   0  0
   48.1308   -4.3583   -0.4904 C   0  0
   46.7470   -4.4191   -0.6971 C   0  0
   34.5790   -4.7066    1.3293 C   0  0
   33.3957   -4.1794    0.8139 C   0  0
   33.3853   -3.5913   -0.4569 C   0  0
   34.5703   -3.5732   -1.2068 C   0  0
   35.7546   -4.1063   -0.6855 C   0  0
   48.9676   -3.6931   -1.5113 C   0  0
   49.8618   -2.8387   -0.9703 O   0  0
   48.8293   -3.8757   -2.7069 O   0  0
   34.5610   -5.2626    2.5500 F   0  0
   32.1083   -3.0512   -1.0322 C   0  0
   38.9791   -6.4603    0.2440 H   0  0
   39.7123   -1.6168    1.2829 H   0  0
   37.4860   -2.6747    1.6906 H   0  0
   42.5940   -6.5492   -1.4626 H   0  0
   41.0151   -7.1063   -0.8720 H   0  0
   42.4116   -7.0656    0.2492 H   0  0
   43.9553   -4.5478   -1.6967 H   0  0
   44.3299   -3.2063   -0.5700 H   0  0
   45.8854   -6.0936    2.1307 H   0  0
   48.3370   -6.0285    2.4663 H   0  0
   49.7911   -4.9308    0.7837 H   0  0
   46.3358   -3.9910   -1.6071 H   0  0
   32.4892   -4.2361    1.4117 H   0  0
   34.5815   -3.1466   -2.2080 H   0  0
   36.6561   -4.0920   -1.2925 H   0  0
   49.7105   -2.6605   -0.0218 H   0  0
   31.5766   -3.8421   -1.5700 H   0  0
   32.3104   -2.2263   -1.7235 H   0  0
   31.4588   -2.6611   -0.2415 H   0  0
  1  2  1  0
  1 21  2  0
  2  3  1  0
  3  4  2  0
  4  8  1  0
  4 31  1  0
  5  6  2  0
  5 32  1  0
  6  3  1  0
  6 33  1  0
  7  5  1  0
  7  8  2  0
  8  9  1  0
  9 10  1  0
  9 12  1  0
 10 11  2  0
 10 13  1  0
 11  7  1  0
 12 34  1  0
 12 35  1  0
 12 36  1  0
 13 14  1  0
 13 37  1  0
 13 38  1  0
 14 15  1  0
 15 16  2  0
 16 17  1  0
 16 39  1  0
 17 18  2  0
 17 40  1  0
 18 19  1  0
 18 41  1  0
 19 20  2  0
 19 26  1  0
 20 15  1  0
 20 42  1  0
 21 22  1  0
 21 29  1  0
 22 23  2  0
 22 43  1  0
 23 24  1  0
 23 30  1  0
 24 25  2  0
 24 44  1  0
 25  1  1  0
 25 45  1  0
 26 27  1  0
 26 28  2  0
 27 46  1  0
 30 47  1  0
 30 48  1  0
 30 49  1  0
M  END
> <Name>
CHEMBL4175728

> <Clean Energy>
41.409901

> <chembl_id>
CHEMBL4175728

> <chembl_pref_name>
None

> <efficacy>
0.9

> <Forcefield>
MMFF

> <ForcefieldBase>
MMFF

> <ForcefieldFFML>
<?xml version="1.0" encoding="UTF-8"?>
<!DOCTYPE ffml SYSTEM "Ffml.dtd">
<ffml version="1.0">
<forcefield name="MMFF" derivedFrom="MMFF" base="MMFF">
<atomTypes>
<atomType
name="C100"
element="C"
mass="12.011"
annotation=""/>
<atomType
name="O101"
element="O"
mass="16"
annotation=""/>
<atomType
name="N102"
element="N"
mass="14.007"
annotation=""/>
<atomType
name="F103"
element="F"
mass="18.998"
annotation=""/>
<atomType
name="H104"
element="H"
mass="1.008"
annotation=""/>
</atomTypes>
<parameters>
</parameters>
</forcefield>
</ffml>

> <Initial Potential Energy>
165.69122

> <Initial RMS Gradient>
34.08686

> <Minimization Criteria>
CONJUG> Minimization exiting with gradient tolerance ( 0.0100000) satisfied.

> <CHARMm Energy>
75.61321

> <Potential Energy>
75.61321

> <RMS Gradient>
0.00894

> <Bond Energy>
4.91845

> <Angle Energy>
15.1586

> <STRBend>
0.02116

> <Dihedral Energy>
12.12478

> <OOPLane>
0.11302

> <Van der Waals Energy>
57.63999

> <Electrostatic Energy>
-14.36279

> <Hydrogen Bond Energy>
0

> <Solvation Free Energy>
0

> <HasGasteigerCharges>
true

> <REMARK99>
REMARK  99  MacroMolecule created from Mol2 file
REMARK  99  CHEMBL4175728
REMARK  99  PROTEIN
REMARK  99  GASTEIGER
REMARK  99
REMARK  99

$$$$
CHEMBL4764095
  SciTegic05292516403D

 51 54  0  0  0  0            999 V2000
    4.7987   -7.9694   -1.8016 C   0  0
    4.4267   -9.3083   -1.6790 C   0  0
    5.3714  -10.3189   -1.4452 C   0  0
    6.1377   -7.5908   -1.6579 C   0  0
    7.0981   -8.5818   -1.4027 C   0  0
    6.7072   -9.9146   -1.3037 C   0  0
    7.8838  -10.5908   -1.0697 N   0  0
    8.9125   -9.6713   -1.0293 C   0  0
    8.4509   -8.4510   -1.2332 N   0  0
    8.0151  -12.0170   -0.8877 C   0  0
   10.3533  -10.0228   -0.8255 C   0  0
   10.4595  -10.6840    0.4375 O   0  0
   11.7249  -10.9891    0.8617 C   0  0
   11.8077  -11.4712    2.1731 C   0  0
   13.0349  -11.8360    2.7312 C   0  0
   14.2005  -11.7144    1.9792 C   0  0
   14.1267  -11.2190    0.6729 C   0  0
   12.8917  -10.8714    0.1071 C   0  0
   15.3404  -11.0871   -0.1628 C   0  0
   16.3857  -10.5554    0.5041 O   0  0
   15.3672  -11.3935   -1.3412 O   0  0
    3.0986   -9.6143   -1.8783 O   0  0
    2.4061  -10.1931   -0.8365 C   0  0
    2.7031  -10.0008    0.5095 C   0  0
    1.9004  -10.6223    1.4578 C   0  0
    0.8366  -11.3922    1.1252 N   0  0
    0.5461  -11.5483   -0.1876 C   0  0
    1.3032  -10.9630   -1.1937 C   0  0
   -0.6489  -12.3855   -0.5320 C   0  0
    2.1897  -10.4451    2.9183 C   0  0
    4.0464   -7.2136   -2.0096 H   0  0
    5.0736  -11.3596   -1.3876 H   0  0
    6.4410   -6.5537   -1.7513 H   0  0
    8.9340  -12.3611   -1.3680 H   0  0
    7.1673  -12.5283   -1.3491 H   0  0
    8.0400  -12.2232    0.1850 H   0  0
   10.6845  -10.6809   -1.6372 H   0  0
   10.9471   -9.1007   -0.8250 H   0  0
   10.8998  -11.5685    2.7661 H   0  0
   13.0788  -12.2248    3.7461 H   0  0
   15.1480  -12.0348    2.4058 H   0  0
   12.8843  -10.5190   -0.9210 H   0  0
   16.1635  -10.1994    1.3852 H   0  0
    3.5296   -9.3747    0.8261 H   0  0
    1.0401  -11.0988   -2.2375 H   0  0
   -0.3506  -13.2302   -1.1606 H   0  0
   -1.3906  -11.7834   -1.0658 H   0  0
   -1.1196  -12.7838    0.3726 H   0  0
    1.4754  -11.0076    3.5281 H   0  0
    2.1146   -9.3883    3.1929 H   0  0
    3.1958  -10.8073    3.1513 H   0  0
  1  2  2  0
  1 31  1  0
  2  3  1  0
  2 22  1  0
  3  6  2  0
  3 32  1  0
  4  1  1  0
  4 33  1  0
  5  4  2  0
  5  6  1  0
  6  7  1  0
  7  8  1  0
  7 10  1  0
  8  9  2  0
  8 11  1  0
  9  5  1  0
 10 34  1  0
 10 35  1  0
 10 36  1  0
 11 12  1  0
 11 37  1  0
 11 38  1  0
 12 13  1  0
 13 14  2  0
 14 15  1  0
 14 39  1  0
 15 16  2  0
 15 40  1  0
 16 17  1  0
 16 41  1  0
 17 18  2  0
 17 19  1  0
 18 13  1  0
 18 42  1  0
 19 20  1  0
 19 21  2  0
 20 43  1  0
 22 23  1  0
 23 24  2  0
 24 25  1  0
 24 44  1  0
 25 26  2  0
 25 30  1  0
 26 27  1  0
 27 28  2  0
 27 29  1  0
 28 23  1  0
 28 45  1  0
 29 46  1  0
 29 47  1  0
 29 48  1  0
 30 49  1  0
 30 50  1  0
 30 51  1  0
M  END
> <Name>
CHEMBL4764095

> <Clean Energy>
31.863001

> <chembl_id>
CHEMBL4764095

> <chembl_pref_name>
None

> <efficacy>
0.99

> <Forcefield>
MMFF

> <ForcefieldBase>
MMFF

> <ForcefieldFFML>
<?xml version="1.0" encoding="UTF-8"?>
<!DOCTYPE ffml SYSTEM "Ffml.dtd">
<ffml version="1.0">
<forcefield name="MMFF" derivedFrom="MMFF" base="MMFF">
<atomTypes>
<atomType
name="C100"
element="C"
mass="12.011"
annotation=""/>
<atomType
name="N101"
element="N"
mass="14.007"
annotation=""/>
<atomType
name="O102"
element="O"
mass="16"
annotation=""/>
<atomType
name="H103"
element="H"
mass="1.008"
annotation=""/>
</atomTypes>
<parameters>
</parameters>
</forcefield>
</ffml>

> <Initial Potential Energy>
191.58638

> <Initial RMS Gradient>
45.93512

> <Minimization Criteria>
CONJUG> Minimization exiting with gradient tolerance ( 0.0100000) satisfied.

> <CHARMm Energy>
57.35586

> <Potential Energy>
57.35586

> <RMS Gradient>
0.00954

> <Bond Energy>
4.40257

> <Angle Energy>
16.21764

> <STRBend>
0.30003

> <Dihedral Energy>
10.2015

> <OOPLane>
0.10871

> <Van der Waals Energy>
59.19426

> <Electrostatic Energy>
-33.06886

> <Hydrogen Bond Energy>
0

> <Solvation Free Energy>
0

> <HasGasteigerCharges>
true

> <REMARK99>
REMARK  99  MacroMolecule created from Mol2 file
REMARK  99  CHEMBL4764095
REMARK  99  PROTEIN
REMARK  99  GASTEIGER
REMARK  99
REMARK  99

$$$$
CHEMBL4078107
  SciTegic05292516403D

 64 68  0  0  0  0            999 V2000
    1.9094   -9.3591   -0.1756 C   0  0
    2.0580  -10.5916    0.4859 C   0  0
    3.3046  -11.0682    0.9376 C   0  0
    3.0642   -8.5808   -0.3849 C   0  0
    4.3202   -9.0329    0.0654 C   0  0
    4.4264  -10.2582    0.7140 C   0  0
    5.7722  -10.3676    1.0247 N   0  0
    6.3950   -9.2012    0.6111 C   0  0
    5.5403   -8.4184   -0.0180 N   0  0
    7.8419   -8.8860    0.8443 C   0  0
    8.1406   -7.3891    0.7330 C   0  0
    9.6103   -7.0971    0.9941 C   0  0
    6.3823  -11.4623    1.7835 C   0  0
    7.6415  -12.0314    1.1718 C   0  0
    7.7080  -12.3826   -0.1824 C   0  0
    8.9008  -12.8589   -0.7326 C   0  0
   10.0494  -13.0149    0.0584 C   0  0
    9.9630  -12.7182    1.4254 C   0  0
    8.7738  -12.2327    1.9758 C   0  0
   11.3067  -13.4925   -0.5352 C   0  0
   11.3746  -14.8375   -0.9509 C   0  0
   12.5330  -15.3650   -1.5207 C   0  0
   13.6552  -14.5623   -1.6809 C   0  0
   13.6199  -13.2299   -1.2727 C   0  0
   12.4545  -12.6848   -0.7028 C   0  0
    0.5873   -8.8897   -0.6501 C   0  0
    0.4027   -8.4885   -1.9833 C   0  0
   -0.8382   -8.0352   -2.4409 C   0  0
   -1.9290   -7.9658   -1.5731 C   0  0
   -1.7768   -8.3529   -0.2422 C   0  0
   -0.5270   -8.8150    0.2063 C   0  0
   12.4541  -11.2415   -0.3350 C   0  0
   13.6906  -10.7979   -0.0298 O   0  0
   11.5020  -10.4872   -0.2812 O   0  0
   -2.7609   -8.3247    0.7112 O   0  0
   -4.0351   -7.8204    0.3161 C   0  0
    1.1780  -11.2149    0.6504 H   0  0
    3.3786  -12.0267    1.4393 H   0  0
    3.0081   -7.6146   -0.8763 H   0  0
    8.1378   -9.2250    1.8435 H   0  0
    8.4479   -9.4267    0.1086 H   0  0
    7.8765   -7.0233   -0.2667 H   0  0
    7.5287   -6.8290    1.4505 H   0  0
    9.8039   -6.0231    0.9111 H   0  0
   10.2477   -7.6143    0.2698 H   0  0
    9.9018   -7.4180    1.9993 H   0  0
    6.5722  -11.0556    2.7842 H   0  0
    5.6495  -12.2691    1.8835 H   0  0
    6.8431  -12.2541   -0.8313 H   0  0
    8.9363  -13.0860   -1.7965 H   0  0
   10.8321  -12.8466    2.0681 H   0  0
    8.7487  -11.9883    3.0355 H   0  0
   10.5127  -15.4915   -0.8259 H   0  0
   12.5501  -16.4030   -1.8395 H   0  0
   14.5561  -14.9666   -2.1304 H   0  0
   14.5059  -12.6146   -1.4175 H   0  0
    1.2371   -8.5337   -2.6823 H   0  0
   -0.9487   -7.7349   -3.4793 H   0  0
   -2.8764   -7.6066   -1.9656 H   0  0
   -0.4232   -9.1019    1.2512 H   0  0
   13.5345   -9.8560    0.1940 H   0  0
   -4.6909   -7.8493    1.1915 H   0  0
   -4.4836   -8.4509   -0.4585 H   0  0
   -3.9615   -6.7785   -0.0124 H   0  0
  1  2  2  0
  1 26  1  0
  2  3  1  0
  2 37  1  0
  3  6  2  0
  3 38  1  0
  4  1  1  0
  4 39  1  0
  5  4  2  0
  5  6  1  0
  6  7  1  0
  7  8  1  0
  7 13  1  0
  8  9  2  0
  8 10  1  0
  9  5  1  0
 10 11  1  0
 10 40  1  0
 10 41  1  0
 11 12  1  0
 11 42  1  0
 11 43  1  0
 12 44  1  0
 12 45  1  0
 12 46  1  0
 13 14  1  0
 13 47  1  0
 13 48  1  0
 14 15  2  0
 15 16  1  0
 15 49  1  0
 16 17  2  0
 16 50  1  0
 17 18  1  0
 17 20  1  0
 18 19  2  0
 18 51  1  0
 19 14  1  0
 19 52  1  0
 20 21  2  0
 21 22  1  0
 21 53  1  0
 22 23  2  0
 22 54  1  0
 23 24  1  0
 23 55  1  0
 24 25  2  0
 24 56  1  0
 25 20  1  0
 25 32  1  0
 26 27  2  0
 27 28  1  0
 27 57  1  0
 28 29  2  0
 28 58  1  0
 29 30  1  0
 29 59  1  0
 30 31  2  0
 30 35  1  0
 31 26  1  0
 31 60  1  0
 32 33  1  0
 32 34  2  0
 33 61  1  0
 35 36  1  0
 36 62  1  0
 36 63  1  0
 36 64  1  0
M  END
> <Name>
CHEMBL4078107

> <Clean Energy>
51.223301

> <chembl_id>
CHEMBL4078107

> <chembl_pref_name>
None

> <efficacy>
0.908831909

> <Forcefield>
MMFF

> <ForcefieldBase>
MMFF

> <ForcefieldFFML>
<?xml version="1.0" encoding="UTF-8"?>
<!DOCTYPE ffml SYSTEM "Ffml.dtd">
<ffml version="1.0">
<forcefield name="MMFF" derivedFrom="MMFF" base="MMFF">
<atomTypes>
<atomType
name="C100"
element="C"
mass="12.011"
annotation=""/>
<atomType
name="N101"
element="N"
mass="14.007"
annotation=""/>
<atomType
name="O102"
element="O"
mass="16"
annotation=""/>
<atomType
name="H103"
element="H"
mass="1.008"
annotation=""/>
</atomTypes>
<parameters>
</parameters>
</forcefield>
</ffml>

> <Initial Potential Energy>
292.66598

> <Initial RMS Gradient>
36.94461

> <Minimization Criteria>
STEEPD> Minimization exiting with gradient tolerance ( 3.0000000) satisfied.

> <CHARMm Energy>
85.08182

> <Potential Energy>
85.08182

> <RMS Gradient>
0.04794

> <Bond Energy>
10.18676

> <Angle Energy>
16.99635

> <STRBend>
-0.58981

> <Dihedral Energy>
10.78079

> <OOPLane>
0.04978

> <Van der Waals Energy>
74.72641

> <Electrostatic Energy>
-27.06847

> <Hydrogen Bond Energy>
0

> <Solvation Free Energy>
0

> <HasGasteigerCharges>
true

> <REMARK99>
REMARK  99  MacroMolecule created from Mol2 file
REMARK  99  CHEMBL4078107
REMARK  99  PROTEIN
REMARK  99  GASTEIGER
REMARK  99
REMARK  99

$$$$
CHEMBL234819
  SciTegic05292516403D

 65 67  0  0  0  0            999 V2000
    1.4355   -4.6581   -1.4173 C   0  0
    0.6304   -5.6149   -0.8054 C   0  0
    0.9587   -6.0924    0.4613 C   0  0
    2.0946   -5.6190    1.1182 C   0  0
    2.9136   -4.6521    0.5169 C   0  0
    2.5724   -4.1811   -0.7620 C   0  0
    4.1403   -4.1386    1.2514 C   0  0  1  0  0  0
    5.4117   -4.6794    0.5986 C   0  0
    4.1867   -2.6873    1.1781 O   0  0
    3.3648   -1.8865    1.9026 C   0  0
    3.2148   -0.6372    1.3776 N   0  0
    2.6276   -2.3224    3.3233 S   0  0
    3.8772   -0.1865    0.1748 C   0  0
    3.2923    1.1079   -0.3119 C   0  0
    3.9701    2.3186   -0.1221 C   0  0
    3.4068    3.5164   -0.5641 C   0  0
    2.1642    3.5168   -1.1961 C   0  0
    1.4801    2.3182   -1.3845 C   0  0
    2.0385    1.1198   -0.9414 C   0  0
    6.6525   -4.3549    1.4367 C   0  0
    7.8796   -4.8904    0.7475 C   0  0
    8.1562   -6.2639    0.7800 C   0  0
    9.2042   -6.7889    0.0296 C   0  0
    9.9923   -5.9429   -0.7594 C   0  0
    9.7537   -4.5637   -0.7483 C   0  0
    8.6968   -4.0408   -0.0055 C   0  0
   11.0642   -6.5240   -1.6387 C   0  0
   12.3416   -6.8475   -0.8667 C   0  0  1  0  0  0
   13.1209   -7.8163   -1.7444 C   0  0
   13.9844   -7.1625   -2.5657 O   0  0
   12.9911   -9.0307   -1.7492 O   0  0
   13.1338   -5.6467   -0.7159 O   0  0
   14.0916   -5.7690    0.3465 C   0  0
   14.9110   -4.4950    0.3911 C   0  0
    1.1708   -4.2779   -2.4009 H   0  0
   -0.2584   -5.9873   -1.3100 H   0  0
    0.3202   -6.8298    0.9423 H   0  0
    2.3299   -6.0065    2.1080 H   0  0
    3.1856   -3.4289   -1.2518 H   0  0
    4.1286   -4.4597    2.2993 H   0  0
    5.3268   -5.7664    0.4678 H   0  0
    5.5350   -4.2468   -0.4038 H   0  0
    2.6190    0.0095    1.8837 H   0  0
    4.9452   -0.0814    0.3986 H   0  0
    3.7871   -0.9520   -0.6048 H   0  0
    4.9410    2.3381    0.3696 H   0  0
    3.9418    4.4503   -0.4159 H   0  0
    1.7313    4.4516   -1.5418 H   0  0
    0.5117    2.3123   -1.8759 H   0  0
    1.4919    0.1899   -1.0874 H   0  0
    6.7483   -3.2729    1.5874 H   0  0
    6.5719   -4.8013    2.4355 H   0  0
    7.5241   -6.9337    1.3581 H   0  0
    9.3800   -7.8633    0.0362 H   0  0
   10.3699   -3.8905   -1.3417 H   0  0
    8.4982   -2.9725   -0.0418 H   0  0
   10.6541   -7.4242   -2.1169 H   0  0
   11.2808   -5.8246   -2.4576 H   0  0
   12.1491   -7.3098    0.1082 H   0  0
   13.9483   -6.2006   -2.3510 H   0  0
   13.5639   -5.9061    1.2966 H   0  0
   14.7463   -6.6284    0.1686 H   0  0
   15.6523   -4.5356    1.1940 H   0  0
   14.2643   -3.6258    0.5502 H   0  0
   15.4289   -4.3369   -0.5607 H   0  0
  1  2  2  0
  1 35  1  0
  2  3  1  0
  2 36  1  0
  3  4  2  0
  3 37  1  0
  4  5  1  0
  4 38  1  0
  5  6  2  0
  5  7  1  0
  6  1  1  0
  6 39  1  0
  7  8  1  0
  7  9  1  0
  7 40  1  0
  8 20  1  0
  8 41  1  0
  8 42  1  0
  9 10  1  0
 10 11  1  0
 10 12  2  0
 11 13  1  0
 11 43  1  0
 13 14  1  0
 13 44  1  0
 13 45  1  0
 14 15  2  0
 15 16  1  0
 15 46  1  0
 16 17  2  0
 16 47  1  0
 17 18  1  0
 17 48  1  0
 18 19  2  0
 18 49  1  0
 19 14  1  0
 19 50  1  0
 20 21  1  0
 20 51  1  0
 20 52  1  0
 21 22  2  0
 22 23  1  0
 22 53  1  0
 23 24  2  0
 23 54  1  0
 24 25  1  0
 24 27  1  0
 25 26  2  0
 25 55  1  0
 26 21  1  0
 26 56  1  0
 27 28  1  0
 27 57  1  0
 27 58  1  0
 28 29  1  0
 28 32  1  0
 28 59  1  0
 29 30  1  0
 29 31  2  0
 30 60  1  0
 32 33  1  0
 33 34  1  0
 33 61  1  0
 33 62  1  0
 34 63  1  0
 34 64  1  0
 34 65  1  0
M  END
> <Name>
CHEMBL234819

> <Clean Energy>
29.030399

> <chembl_id>
CHEMBL234819

> <chembl_pref_name>
None

> <efficacy>
1.59

> <Forcefield>
MMFF

> <ForcefieldBase>
MMFF

> <ForcefieldFFML>
<?xml version="1.0" encoding="UTF-8"?>
<!DOCTYPE ffml SYSTEM "Ffml.dtd">
<ffml version="1.0">
<forcefield name="MMFF" derivedFrom="MMFF" base="MMFF">
<atomTypes>
<atomType
name="C100"
element="C"
mass="12.011"
annotation=""/>
<atomType
name="O101"
element="O"
mass="16"
annotation=""/>
<atomType
name="N102"
element="N"
mass="14.007"
annotation=""/>
<atomType
name="S103"
element="S"
mass="32.066"
annotation=""/>
<atomType
name="H104"
element="H"
mass="1.008"
annotation=""/>
</atomTypes>
<parameters>
</parameters>
</forcefield>
</ffml>

> <Initial Potential Energy>
190.38036

> <Initial RMS Gradient>
31.17169

> <Minimization Criteria>
STEEPD> Minimization exiting with gradient tolerance ( 3.0000000) satisfied.

> <CHARMm Energy>
34.72067

> <Potential Energy>
34.72067

> <RMS Gradient>
0.02856

> <Bond Energy>
6.20997

> <Angle Energy>
9.36559

> <STRBend>
0.24842

> <Dihedral Energy>
2.43351

> <OOPLane>
0.0994

> <Van der Waals Energy>
67.46104

> <Electrostatic Energy>
-51.09726

> <Hydrogen Bond Energy>
0

> <Solvation Free Energy>
0

> <HasGasteigerCharges>
true

> <REMARK99>
REMARK  99  MacroMolecule created from Mol2 file
REMARK  99  CHEMBL234819
REMARK  99  PROTEIN
REMARK  99  GASTEIGER
REMARK  99
REMARK  99

$$$$
CHEMBL1813011
  SciTegic05292516403D

 54 56  0  0  0  0            999 V2000
    1.7032  -19.3017    0.1220 C   0  0
    1.3821  -20.6007    0.5043 C   0  0
    2.3686  -21.4027    1.0841 C   0  0
    3.6576  -20.9093    1.3083 C   0  0
    3.9896  -19.6039    0.9332 C   0  0
    3.0018  -18.8093    0.3301 C   0  0
    5.3758  -19.0501    1.1926 C   0  0
    6.3522  -19.2326    0.0214 C   0  0  1  0  0  0
    7.4140  -18.1390    0.0999 C   0  0
    7.0624  -20.4931    0.1288 O   0  0
    6.5978  -21.4473   -0.8305 C   0  0
    7.3075  -22.7610   -0.5718 C   0  0
    7.2130  -16.9408   -0.0283 O   0  0
    8.6527  -18.6427    0.3365 O   0  0
    0.1699  -21.2101    0.3477 O   0  0
   -0.9807  -20.3823    0.1274 C   0  0
   -2.1969  -21.3055    0.1958 C   0  0
   -3.5211  -20.6491    0.0229 C   0  0
   -3.6794  -19.2826    0.0324 N   0  0
   -4.9812  -19.0800   -0.1165 C   0  0
   -5.6917  -20.2503   -0.2287 O   0  0
   -4.7566  -21.2402   -0.1370 C   0  0
   -5.5587  -17.7660   -0.1550 C   0  0
   -5.2517  -22.6258   -0.2119 C   0  0
   -4.8799  -16.5684   -0.0320 C   0  0
   -5.7463  -15.4402   -0.1161 C   0  0
   -7.0618  -15.8098   -0.3001 C   0  0
   -7.2362  -17.5115   -0.3670 S   0  0
   -8.2590  -14.9366   -0.4334 C   0  0
    0.9714  -18.6505   -0.3448 H   0  0
    2.1222  -22.4194    1.3806 H   0  0
    4.3929  -21.5532    1.7840 H   0  0
    3.2263  -17.7869    0.0300 H   0  0
    5.2602  -17.9870    1.4420 H   0  0
    5.7815  -19.5230    2.0968 H   0  0
    5.8723  -19.1372   -0.9607 H   0  0
    5.5168  -21.5858   -0.7435 H   0  0
    6.8334  -21.0894   -1.8386 H   0  0
    6.9935  -23.5229   -1.2906 H   0  0
    7.0939  -23.1204    0.4403 H   0  0
    8.3928  -22.6337   -0.6422 H   0  0
    8.5833  -19.6247    0.3954 H   0  0
   -1.0448  -19.6103    0.9040 H   0  0
   -0.9209  -19.9115   -0.8608 H   0  0
   -2.0835  -22.0901   -0.5641 H   0  0
   -2.1891  -21.8307    1.1600 H   0  0
   -4.4238  -23.3400   -0.2530 H   0  0
   -5.8656  -22.7672   -1.1066 H   0  0
   -5.8612  -22.8613    0.6659 H   0  0
   -3.8077  -16.5064    0.1129 H   0  0
   -5.4121  -14.4123   -0.0435 H   0  0
   -8.7812  -15.1297   -1.3763 H   0  0
   -7.9753  -13.8789   -0.4202 H   0  0
   -8.9562  -15.1063    0.3937 H   0  0
  1  2  2  0
  1 30  1  0
  2  3  1  0
  2 15  1  0
  3  4  2  0
  3 31  1  0
  4  5  1  0
  4 32  1  0
  5  6  2  0
  5  7  1  0
  6  1  1  0
  6 33  1  0
  7  8  1  0
  7 34  1  0
  7 35  1  0
  8  9  1  0
  8 10  1  0
  8 36  1  0
  9 13  2  0
  9 14  1  0
 10 11  1  0
 11 12  1  0
 11 37  1  0
 11 38  1  0
 12 39  1  0
 12 40  1  0
 12 41  1  0
 14 42  1  0
 15 16  1  0
 16 17  1  0
 16 43  1  0
 16 44  1  0
 17 18  1  0
 17 45  1  0
 17 46  1  0
 18 19  1  0
 19 20  2  0
 20 21  1  0
 20 23  1  0
 21 22  1  0
 22 18  2  0
 22 24  1  0
 23 25  2  0
 24 47  1  0
 24 48  1  0
 24 49  1  0
 25 26  1  0
 25 50  1  0
 26 27  2  0
 26 51  1  0
 27 28  1  0
 27 29  1  0
 28 23  1  0
 29 52  1  0
 29 53  1  0
 29 54  1  0
M  END
> <Name>
CHEMBL1813011

> <Clean Energy>
54.7901

> <chembl_id>
CHEMBL1813011

> <chembl_pref_name>
None

> <efficacy>
1.65

> <Forcefield>
MMFF

> <ForcefieldBase>
MMFF

> <ForcefieldFFML>
<?xml version="1.0" encoding="UTF-8"?>
<!DOCTYPE ffml SYSTEM "Ffml.dtd">
<ffml version="1.0">
<forcefield name="MMFF" derivedFrom="MMFF" base="MMFF">
<atomTypes>
<atomType
name="C100"
element="C"
mass="12.011"
annotation=""/>
<atomType
name="O101"
element="O"
mass="16"
annotation=""/>
<atomType
name="N102"
element="N"
mass="14.007"
annotation=""/>
<atomType
name="S103"
element="S"
mass="32.066"
annotation=""/>
<atomType
name="H104"
element="H"
mass="1.008"
annotation=""/>
</atomTypes>
<parameters>
</parameters>
</forcefield>
</ffml>

> <Initial Potential Energy>
140.14308

> <Initial RMS Gradient>
23.93319

> <Minimization Criteria>
STEEPD> Minimization exiting with gradient tolerance ( 3.0000000) satisfied.

> <CHARMm Energy>
68.04523

> <Potential Energy>
68.04523

> <RMS Gradient>
0.06951

> <Bond Energy>
3.77803

> <Angle Energy>
13.95225

> <STRBend>
0.10291

> <Dihedral Energy>
-0.04712

> <OOPLane>
0.01283

> <Van der Waals Energy>
34.04678

> <Electrostatic Energy>
16.19955

> <Hydrogen Bond Energy>
0

> <Solvation Free Energy>
0

> <HasGasteigerCharges>
true

> <REMARK99>
REMARK  99  MacroMolecule created from Mol2 file
REMARK  99  CHEMBL1813011
REMARK  99  PROTEIN
REMARK  99  GASTEIGER
REMARK  99
REMARK  99

$$$$
CHEMBL3597388
  SciTegic05292516403D

 57 60  0  0  0  0            999 V2000
   -2.0726    1.0532   -0.0350 C   0  0
   -2.1131   -0.3415   -0.0809 C   0  0
   -0.9513   -1.1088   -0.2282 C   0  0
   -0.8438    1.7178   -0.1189 C   0  0
    0.3479    0.9685   -0.2688 C   0  0
    0.2613   -0.4231   -0.3238 C   0  0
    1.5380   -0.9086   -0.4864 N   0  0
    2.4330    0.1262   -0.5238 C   0  0
    1.7354    1.3121   -0.3833 C   0  0
    2.3268    2.6889   -0.3576 C   0  0
    3.1747    2.9836    0.8632 C   0  0
    2.8433    2.3214    1.9958 O   0  0
    4.0832    3.8060    0.8527 O   0  0
   -3.2968    1.6492    0.1020 O   0  0
   -3.3669    3.0720   -0.0144 C   0  0
   -4.8405    3.4821    0.0260 C   0  0
   -4.9438    4.9027   -0.0758 O   0  0
   -6.2003    5.4505   -0.0528 C   0  0
   -6.2286    6.8462   -0.1259 C   0  0
   -7.4386    7.5343   -0.1084 C   0  0
   -8.6345    6.8241   -0.0239 C   0  0
   -8.6272    5.4284    0.0432 C   0  0
   -7.4052    4.7434    0.0331 C   0  0
   -9.8699    4.8574    0.1241 O   0  0
   -9.9325    3.4308    0.0701 C   0  0
  -11.3650    2.9385    0.0999 C   0  0
  -11.6160    1.5831    0.3661 C   0  0
  -12.9220    1.0852    0.3802 C   0  0
  -14.0043    1.9339    0.1314 C   0  0
  -13.7586    3.2791   -0.1614 C   0  0
  -12.4526    3.7766   -0.1771 C   0  0
  -15.4036    1.3959    0.1165 C   0  0
   -3.0735   -0.8498   -0.0080 H   0  0
   -1.0058   -2.1911   -0.2713 H   0  0
   -0.7857    2.7988   -0.0761 H   0  0
    1.7756   -1.8889   -0.5701 H   0  0
    3.4922   -0.0710   -0.6475 H   0  0
    2.9638    2.8068   -1.2428 H   0  0
    1.5434    3.4522   -0.4057 H   0  0
    2.0855    1.7124    1.8866 H   0  0
   -2.8321    3.5515    0.8143 H   0  0
   -2.9254    3.4085   -0.9606 H   0  0
   -5.3648    2.9983   -0.8075 H   0  0
   -5.2817    3.1321    0.9676 H   0  0
   -5.2957    7.4027   -0.1915 H   0  0
   -7.4500    8.6199   -0.1619 H   0  0
   -9.5802    7.3595   -0.0118 H   0  0
   -7.3867    3.6641    0.0987 H   0  0
   -9.4741    3.0708   -0.8594 H   0  0
   -9.4118    3.0156    0.9419 H   0  0
  -10.7911    0.9016    0.5631 H   0  0
  -13.0909    0.0298    0.5864 H   0  0
  -14.5840    3.9526   -0.3800 H   0  0
  -12.2967    4.8284   -0.4081 H   0  0
  -16.1247    2.1724    0.3926 H   0  0
  -15.5151    0.5794    0.8377 H   0  0
  -15.6506    1.0230   -0.8822 H   0  0
  1  2  2  0
  1 14  1  0
  2  3  1  0
  2 33  1  0
  3  6  2  0
  3 34  1  0
  4  1  1  0
  4 35  1  0
  5  4  2  0
  5  6  1  0
  6  7  1  0
  7  8  1  0
  7 36  1  0
  8  9  2  0
  8 37  1  0
  9  5  1  0
  9 10  1  0
 10 11  1  0
 10 38  1  0
 10 39  1  0
 11 12  1  0
 11 13  2  0
 12 40  1  0
 14 15  1  0
 15 16  1  0
 15 41  1  0
 15 42  1  0
 16 17  1  0
 16 43  1  0
 16 44  1  0
 17 18  1  0
 18 19  2  0
 19 20  1  0
 19 45  1  0
 20 21  2  0
 20 46  1  0
 21 22  1  0
 21 47  1  0
 22 23  2  0
 22 24  1  0
 23 18  1  0
 23 48  1  0
 24 25  1  0
 25 26  1  0
 25 49  1  0
 25 50  1  0
 26 27  2  0
 27 28  1  0
 27 51  1  0
 28 29  2  0
 28 52  1  0
 29 30  1  0
 29 32  1  0
 30 31  2  0
 30 53  1  0
 31 26  1  0
 31 54  1  0
 32 55  1  0
 32 56  1  0
 32 57  1  0
M  END
> <Name>
CHEMBL3597388

> <Clean Energy>
24.6703

> <chembl_id>
CHEMBL3597388

> <chembl_pref_name>
None

> <efficacy>
1.135

> <Forcefield>
MMFF

> <ForcefieldBase>
MMFF

> <ForcefieldFFML>
<?xml version="1.0" encoding="UTF-8"?>
<!DOCTYPE ffml SYSTEM "Ffml.dtd">
<ffml version="1.0">
<forcefield name="MMFF" derivedFrom="MMFF" base="MMFF">
<atomTypes>
<atomType
name="C100"
element="C"
mass="12.011"
annotation=""/>
<atomType
name="N101"
element="N"
mass="14.007"
annotation=""/>
<atomType
name="O102"
element="O"
mass="16"
annotation=""/>
<atomType
name="H103"
element="H"
mass="1.008"
annotation=""/>
</atomTypes>
<parameters>
</parameters>
</forcefield>
</ffml>

> <Initial Potential Energy>
156.11478

> <Initial RMS Gradient>
30.02763

> <Minimization Criteria>
STEEPD> Minimization exiting with gradient tolerance ( 3.0000000) satisfied.

> <CHARMm Energy>
77.59795

> <Potential Energy>
77.59795

> <RMS Gradient>
0.06743

> <Bond Energy>
5.73634

> <Angle Energy>
24.03434

> <STRBend>
-0.5457

> <Dihedral Energy>
-2.85878

> <OOPLane>
0.06898

> <Van der Waals Energy>
63.4859

> <Electrostatic Energy>
-12.32311

> <Hydrogen Bond Energy>
0

> <Solvation Free Energy>
0

> <HasGasteigerCharges>
true

> <REMARK99>
REMARK  99  MacroMolecule created from Mol2 file
REMARK  99  CHEMBL3597388
REMARK  99  PROTEIN
REMARK  99  GASTEIGER
REMARK  99
REMARK  99

$$$$
CHEMBL3335628
  SciTegic05292516403D

 46 48  0  0  0  0            999 V2000
    2.6383   -3.6144   -0.3904 C   0  0
    2.5941   -4.9613   -0.7288 C   0  0
    3.7390   -5.7626   -0.5960 C   0  0
    4.9528   -5.2357   -0.1282 C   0  0
    4.9822   -3.8530    0.1812 C   0  0
    3.8272   -3.0561    0.0668 C   0  0
    6.2173   -3.1449    0.6147 C   0  0
    7.3227   -3.4048   -0.1776 N   0  0
    6.1571   -2.3829    1.5713 O   0  0
    8.6485   -2.9721    0.0346 C   0  0
    6.1167   -6.0467    0.0724 N   0  0
    6.2745   -7.3889   -0.2580 C   0  0
    7.5946   -8.0356    0.0611 C   0  0
    5.4262   -8.0923   -0.7969 O   0  0
    7.6521   -9.4434    0.0896 C   0  0
    8.8591  -10.1199    0.3288 C   0  0
   10.0427   -9.3995    0.5380 C   0  0
    9.9710   -8.0057    0.5259 C   0  0
    8.7739   -7.3204    0.2829 C   0  0
   11.3604  -10.0824    0.7980 C   0  0
   11.3761  -11.3954    0.4152 F   0  0
   12.4121   -9.5118    0.1475 F   0  0
   11.6927  -10.0889    2.1198 F   0  0
    9.5818   -3.2485   -0.9704 C   0  0
   10.9265   -2.8731   -0.8230 C   0  0
   11.3545   -2.2478    0.3506 C   0  0
   10.4258   -1.9670    1.3523 C   0  0
    9.0803   -2.3220    1.1924 C   0  0
   11.8614   -3.2127   -1.9217 C   0  0
   11.7041   -4.1997   -2.6204 O   0  0
   12.8488   -2.3153   -2.1083 O   0  0
   11.0751   -7.2809    0.7495 F   0  0
    1.7475   -2.9992   -0.4865 H   0  0
    1.6622   -5.3982   -1.0875 H   0  0
    3.6294   -6.8125   -0.8517 H   0  0
    3.8530   -1.9963    0.3242 H   0  0
    7.1463   -3.9114   -1.0407 H   0  0
    6.8828   -5.5872    0.5496 H   0  0
    6.7477  -10.0305   -0.0834 H   0  0
    8.8663  -11.2120    0.3419 H   0  0
    8.8190   -6.2384    0.2496 H   0  0
    9.2782   -3.7571   -1.8842 H   0  0
   12.4016   -2.0052    0.5165 H   0  0
   10.7470   -1.4836    2.2734 H   0  0
    8.3954   -2.0933    2.0048 H   0  0
   12.7762   -1.4828   -1.6049 H   0  0
  1  2  2  0
  1 33  1  0
  2  3  1  0
  2 34  1  0
  3  4  2  0
  3 35  1  0
  4  5  1  0
  4 11  1  0
  5  6  2  0
  5  7  1  0
  6  1  1  0
  6 36  1  0
  7  8  1  0
  7  9  2  0
  8 10  1  0
  8 37  1  0
 10 24  2  0
 11 12  1  0
 11 38  1  0
 12 13  1  0
 12 14  2  0
 13 15  2  0
 15 16  1  0
 15 39  1  0
 16 17  2  0
 16 40  1  0
 17 18  1  0
 17 20  1  0
 18 19  2  0
 18 32  1  0
 19 13  1  0
 19 41  1  0
 20 21  1  0
 20 22  1  0
 20 23  1  0
 24 25  1  0
 24 42  1  0
 25 26  2  0
 25 29  1  0
 26 27  1  0
 26 43  1  0
 27 28  2  0
 27 44  1  0
 28 10  1  0
 28 45  1  0
 29 30  2  0
 29 31  1  0
 31 46  1  0
M  END
> <Name>
CHEMBL3335628

> <Clean Energy>
12.0514

> <chembl_id>
CHEMBL3335628

> <chembl_pref_name>
None

> <efficacy>
2.279202279

> <Forcefield>
MMFF

> <ForcefieldBase>
MMFF

> <ForcefieldFFML>
<?xml version="1.0" encoding="UTF-8"?>
<!DOCTYPE ffml SYSTEM "Ffml.dtd">
<ffml version="1.0">
<forcefield name="MMFF" derivedFrom="MMFF" base="MMFF">
<atomTypes>
<atomType
name="C100"
element="C"
mass="12.011"
annotation=""/>
<atomType
name="N101"
element="N"
mass="14.007"
annotation=""/>
<atomType
name="O102"
element="O"
mass="16"
annotation=""/>
<atomType
name="F103"
element="F"
mass="18.998"
annotation=""/>
<atomType
name="H104"
element="H"
mass="1.008"
annotation=""/>
</atomTypes>
<parameters>
</parameters>
</forcefield>
</ffml>

> <Initial Potential Energy>
236.62142

> <Initial RMS Gradient>
91.78657

> <Minimization Criteria>
STEEPD> Minimization exiting with gradient tolerance ( 3.0000000) satisfied.

> <CHARMm Energy>
51.28148

> <Potential Energy>
51.28148

> <RMS Gradient>
0.03049

> <Bond Energy>
7.55758

> <Angle Energy>
13.81785

> <STRBend>
2.07485

> <Dihedral Energy>
10.9268

> <OOPLane>
0.14479

> <Van der Waals Energy>
62.04636

> <Electrostatic Energy>
-45.28676

> <Hydrogen Bond Energy>
0

> <Solvation Free Energy>
0

> <HasGasteigerCharges>
true

> <REMARK99>
REMARK  99  MacroMolecule created from Mol2 file
REMARK  99  CHEMBL3335628
REMARK  99  PROTEIN
REMARK  99  GASTEIGER
REMARK  99
REMARK  99

$$$$
CHEMBL5084314
  SciTegic05292516403D

 60 63  0  0  0  0            999 V2000
   -1.7507  -22.8698    0.7896 O   0  0
   -1.0310  -21.6102    0.7606 S   0  0
   -0.7516  -20.8795    1.9761 O   0  0
    2.8824  -16.7336   -1.1873 F   0  0
    2.8714  -17.9748   -1.7454 C   0  0
    4.0123  -18.0813   -2.4811 F   0  0
    1.6865  -19.9918   -0.8166 C   0  0
    1.5132  -21.0154    0.1116 C   0  0
    2.3970  -21.1283    1.1795 C   0  0
    3.4771  -20.2423    1.2941 C   0  0
    3.6923  -19.2190    0.3483 C   0  0
    2.7614  -19.0783   -0.7111 C   0  0
    1.8426  -17.9605   -2.6428 F   0  0
    4.8890  -18.2968    0.5263 C   0  0
    6.1508  -19.0055    0.4686 N   0  0
    7.3563  -18.3299    0.5249 C   0  0
    8.5822  -19.1754    0.4784 C   0  0
    7.4691  -17.1083    0.5776 O   0  0
    8.6569  -20.4088    1.1315 C   0  0
    9.8249  -21.1839    1.0840 C   0  0
    9.6962  -18.6788   -0.2130 C   0  0
   10.8755  -19.4498   -0.2861 C   0  0
   10.9226  -20.6912    0.3558 C   0  0
   12.1681  -21.2366    0.0890 N   0  0
   12.9134  -20.3538   -0.6548 C   0  0
   12.1367  -19.2470   -0.9067 C   0  0
   12.6523  -22.5550    0.5113 C   0  0
   11.8295  -23.7031   -0.0389 C   0  0
   11.2146  -23.6656   -1.3023 C   0  0
   10.4773  -24.7559   -1.7763 C   0  0
   10.3715  -25.9130   -1.0093 C   0  0
   10.9991  -25.9695    0.2279 C   0  0
   11.7160  -24.8802    0.7177 C   0  0
   10.9109  -27.0870    0.9631 F   0  0
    0.4261  -21.9330   -0.0477 N   0  0
   -1.8569  -20.5368   -0.4089 C   0  0
   -3.2614  -20.1987    0.0514 C   0  0
    0.9926  -19.9102   -1.6512 H   0  0
    2.2535  -21.8962    1.9355 H   0  0
    4.1510  -20.3481    2.1440 H   0  0
    4.9214  -17.5063   -0.2278 H   0  0
    4.8205  -17.7992    1.5012 H   0  0
    6.1452  -20.0034    0.3082 H   0  0
    7.8145  -20.7768    1.7115 H   0  0
    9.8762  -22.1386    1.5991 H   0  0
    9.6620  -17.7028   -0.6929 H   0  0
   13.9293  -20.5860   -0.9515 H   0  0
   12.4368  -18.3800   -1.4813 H   0  0
   13.6920  -22.6610    0.1827 H   0  0
   12.6307  -22.5424    1.6075 H   0  0
   11.2606  -22.7693   -1.9213 H   0  0
    9.9662  -24.6842   -2.7345 H   0  0
    9.8063  -26.7702   -1.3626 H   0  0
   12.1863  -24.9638    1.6932 H   0  0
    0.6840  -22.9125    0.1053 H   0  0
   -1.2651  -19.6226   -0.5015 H   0  0
   -1.8872  -21.0556   -1.3715 H   0  0
   -3.7492  -19.5363   -0.6702 H   0  0
   -3.2464  -19.6949    1.0232 H   0  0
   -3.8718  -21.1017    0.1528 H   0  0
  2  1  2  0
  2 36  1  0
  3  2  2  0
  5  4  1  0
  5 13  1  0
  6  5  1  0
  7  8  2  0
  7 38  1  0
  8  9  1  0
  8 35  1  0
  9 10  2  0
  9 39  1  0
 10 11  1  0
 10 40  1  0
 11 12  2  0
 11 14  1  0
 12  5  1  0
 12  7  1  0
 14 15  1  0
 14 41  1  0
 14 42  1  0
 15 16  1  0
 15 43  1  0
 16 17  1  0
 16 18  2  0
 17 19  2  0
 19 20  1  0
 19 44  1  0
 20 23  2  0
 20 45  1  0
 21 17  1  0
 21 46  1  0
 22 21  2  0
 22 23  1  0
 23 24  1  0
 24 25  1  0
 24 27  1  0
 25 26  2  0
 25 47  1  0
 26 22  1  0
 26 48  1  0
 27 28  1  0
 27 49  1  0
 27 50  1  0
 28 29  2  0
 29 30  1  0
 29 51  1  0
 30 31  2  0
 30 52  1  0
 31 32  1  0
 31 53  1  0
 32 33  2  0
 32 34  1  0
 33 28  1  0
 33 54  1  0
 35  2  1  0
 35 55  1  0
 36 37  1  0
 36 56  1  0
 36 57  1  0
 37 58  1  0
 37 59  1  0
 37 60  1  0
M  END
> <Name>
CHEMBL5084314

> <Clean Energy>
47.947399

> <chembl_id>
CHEMBL5084314

> <chembl_pref_name>
None

> <efficacy>
1.320037987

> <Forcefield>
MMFF

> <ForcefieldBase>
MMFF

> <ForcefieldFFML>
<?xml version="1.0" encoding="UTF-8"?>
<!DOCTYPE ffml SYSTEM "Ffml.dtd">
<ffml version="1.0">
<forcefield name="MMFF" derivedFrom="MMFF" base="MMFF">
<atomTypes>
<atomType
name="O100"
element="O"
mass="16"
annotation=""/>
<atomType
name="S101"
element="S"
mass="32.066"
annotation=""/>
<atomType
name="F102"
element="F"
mass="18.998"
annotation=""/>
<atomType
name="C103"
element="C"
mass="12.011"
annotation=""/>
<atomType
name="N104"
element="N"
mass="14.007"
annotation=""/>
<atomType
name="H105"
element="H"
mass="1.008"
annotation=""/>
</atomTypes>
<parameters>
</parameters>
</forcefield>
</ffml>

> <Initial Potential Energy>
418.52329

> <Initial RMS Gradient>
204.08336

> <Minimization Criteria>
CONJUG> Minimization exiting with gradient tolerance ( 0.0100000) satisfied.

> <CHARMm Energy>
-1.53925

> <Potential Energy>
-1.53925

> <RMS Gradient>
0.00993

> <Bond Energy>
7.78985

> <Angle Energy>
8.61132

> <STRBend>
0.32899

> <Dihedral Energy>
10.79613

> <OOPLane>
0.07182

> <Van der Waals Energy>
55.80547

> <Electrostatic Energy>
-84.94284

> <Hydrogen Bond Energy>
0

> <Solvation Free Energy>
0

> <HasGasteigerCharges>
true

> <REMARK99>
REMARK  99  MacroMolecule created from Mol2 file
REMARK  99  CHEMBL5084314
REMARK  99  PROTEIN
REMARK  99  GASTEIGER
REMARK  99
REMARK  99

$$$$
CHEMBL5089520
  SciTegic05292516403D

 51 53  0  0  0  0            999 V2000
   11.4689  -21.0035   -1.0951 C   0  0
   10.5240  -20.8382    0.1062 C   0  0
   10.5153  -22.1353    0.9319 C   0  0
    6.2065  -21.5006    1.3023 C   0  0
    5.6695  -22.4102    0.3818 C   0  0
    6.3833  -22.6811   -0.7907 C   0  0
    7.5986  -22.0328   -1.0640 C   0  0
    8.1235  -21.1272   -0.1239 C   0  0
    7.4085  -20.8231    1.0463 C   0  0
    7.8397  -19.7537    2.0078 C   0  0
    8.3008  -22.3219   -2.3605 C   0  0
    9.2562  -20.4386   -0.4607 O   0  0
   11.0523  -19.6487    0.9424 C   0  0
   12.2544  -19.8534    1.5381 O   0  0
   10.4827  -18.5721    1.0704 O   0  0
    4.2992  -23.0117    0.6121 C   0  0
    3.2945  -21.9801    0.7530 N   0  0
    2.8041  -21.1814   -0.2915 C   0  0
    2.0721  -20.1846    0.3340 N   0  0
    2.1470  -20.4774    1.6528 C   0  0
    2.8570  -21.5151    1.9684 N   0  0
    3.0342  -21.3548   -1.4791 O   0  0
    1.4193  -19.0797   -0.2617 C   0  0
    1.2478  -18.9881   -1.6530 C   0  0
    0.5726  -17.9055   -2.2302 C   0  0
    0.0716  -16.8952   -1.4228 C   0  0
    0.2599  -16.9383   -0.0498 C   0  0
    0.9235  -18.0261    0.5279 C   0  0
   -0.5993  -15.8728   -1.9708 F   0  0
   11.1199  -21.7960   -1.7644 H   0  0
   12.4919  -21.2473   -0.7905 H   0  0
   11.5064  -20.0833   -1.6904 H   0  0
    9.9383  -22.0221    1.8552 H   0  0
   11.5257  -22.4380    1.2268 H   0  0
   10.0797  -22.9683    0.3698 H   0  0
    5.6423  -21.2696    2.2056 H   0  0
    5.9650  -23.3657   -1.5269 H   0  0
    7.0753  -19.5681    2.7707 H   0  0
    7.9894  -18.8084    1.4785 H   0  0
    8.7512  -20.0490    2.5323 H   0  0
    9.1060  -23.0438   -2.1959 H   0  0
    8.7132  -21.4073   -2.7983 H   0  0
    7.6108  -22.7423   -3.1002 H   0  0
   12.7187  -20.6875    1.3367 H   0  0
    4.0134  -23.6412   -0.2381 H   0  0
    4.3073  -23.6360    1.5123 H   0  0
    1.6279  -19.8561    2.3901 H   0  0
    1.6240  -19.7574   -2.3225 H   0  0
    0.4272  -17.8528   -3.3053 H   0  0
   -0.1133  -16.1268    0.5678 H   0  0
    1.0661  -18.0018    1.6040 H   0  0
  1 30  1  0
  1 31  1  0
  1 32  1  0
  2  1  1  0
  2 13  1  0
  3  2  1  0
  3 33  1  0
  3 34  1  0
  3 35  1  0
  4  5  2  0
  4 36  1  0
  5  6  1  0
  5 16  1  0
  6  7  2  0
  6 37  1  0
  7  8  1  0
  7 11  1  0
  8  9  2  0
  8 12  1  0
  9  4  1  0
  9 10  1  0
 10 38  1  0
 10 39  1  0
 10 40  1  0
 11 41  1  0
 11 42  1  0
 11 43  1  0
 12  2  1  0
 13 14  1  0
 13 15  2  0
 14 44  1  0
 16 17  1  0
 16 45  1  0
 16 46  1  0
 17 18  1  0
 18 19  1  0
 18 22  2  0
 19 20  1  0
 19 23  1  0
 20 21  2  0
 20 47  1  0
 21 17  1  0
 23 24  2  0
 24 25  1  0
 24 48  1  0
 25 26  2  0
 25 49  1  0
 26 27  1  0
 26 29  1  0
 27 28  2  0
 27 50  1  0
 28 23  1  0
 28 51  1  0
M  END
> <Name>
CHEMBL5089520

> <Clean Energy>
59.644901

> <chembl_id>
CHEMBL5089520

> <chembl_pref_name>
None

> <efficacy>
1.04

> <Forcefield>
MMFF

> <ForcefieldBase>
MMFF

> <ForcefieldFFML>
<?xml version="1.0" encoding="UTF-8"?>
<!DOCTYPE ffml SYSTEM "Ffml.dtd">
<ffml version="1.0">
<forcefield name="MMFF" derivedFrom="MMFF" base="MMFF">
<atomTypes>
<atomType
name="C100"
element="C"
mass="12.011"
annotation=""/>
<atomType
name="O101"
element="O"
mass="16"
annotation=""/>
<atomType
name="N102"
element="N"
mass="14.007"
annotation=""/>
<atomType
name="F103"
element="F"
mass="18.998"
annotation=""/>
<atomType
name="H104"
element="H"
mass="1.008"
annotation=""/>
</atomTypes>
<parameters>
</parameters>
</forcefield>
</ffml>

> <Initial Potential Energy>
208.00138

> <Initial RMS Gradient>
30.956

> <Minimization Criteria>
CONJUG> Minimization exiting with gradient tolerance ( 0.0100000) satisfied.

> <CHARMm Energy>
90.05469

> <Potential Energy>
90.05469

> <RMS Gradient>
0.00996

> <Bond Energy>
6.59599

> <Angle Energy>
28.93874

> <STRBend>
-0.20565

> <Dihedral Energy>
9.81666

> <OOPLane>
0.33297

> <Van der Waals Energy>
52.26258

> <Electrostatic Energy>
-7.6866

> <Hydrogen Bond Energy>
0

> <Solvation Free Energy>
0

> <HasGasteigerCharges>
true

> <REMARK99>
REMARK  99  MacroMolecule created from Mol2 file
REMARK  99  CHEMBL5089520
REMARK  99  PROTEIN
REMARK  99  GASTEIGER
REMARK  99
REMARK  99

$$$$
CHEMBL86688
  SciTegic05292516403D

 56 58  0  0  0  0            999 V2000
    7.9116   -1.2491   -0.6402 C   0  0
   -0.8887   -5.2565    1.6580 C   0  0
    7.7258    0.2169   -0.6348 C   0  0
   -1.1316   -4.2999    0.4761 C   0  0  2  0  0  0
    6.8574   -2.0708   -0.8319 C   0  0
    9.2026   -1.9084   -0.3218 C   0  0
   -1.7531   -5.6386    2.4351 O   0  0
   -0.7591   -2.8709    0.9034 C   0  0
    8.0833    0.9920   -1.7456 C   0  0
    7.1913    0.8479    0.4971 C   0  0
    0.7089   -2.5790    0.7141 C   0  0
    0.3908   -5.6847    1.7704 O   0  0
    7.3893    2.9934   -0.5871 C   0  0
    3.4561   -2.1587    0.3094 C   0  0
    5.4139   -1.7193   -1.0045 C   0  0
    7.0175    2.2332    0.5202 C   0  0
    7.9223    2.3805   -1.7202 C   0  0
    7.1542    4.8679   -0.5557 Br  0  0
   -2.4963   -4.2492    0.0448 O   0  0
    1.6056   -2.7130    1.7780 C   0  0
    1.1989   -2.2052   -0.5449 C   0  0
    2.5650   -1.9868   -0.7450 C   0  0
    2.9689   -2.5101    1.5705 C   0  0
    4.8099   -2.0302    0.2502 O   0  0
   10.3523   -1.6521   -1.0766 C   0  0
    9.2856   -2.7888    0.7735 C   0  0
   -2.9379   -5.4557   -0.5759 C   0  0
   -4.3764   -5.2643   -1.0147 C   0  0
   10.4956   -3.4038    1.0979 C   0  0
   11.5574   -2.2764   -0.7535 C   0  0
   11.6308   -3.1476    0.3317 C   0  0
   -0.5273   -4.6329   -0.3771 H   0  0
    7.0243   -3.1479   -0.8100 H   0  0
   -1.3336   -2.1372    0.3215 H   0  0
   -1.0449   -2.6897    1.9481 H   0  0
    8.5015    0.5232   -2.6332 H   0  0
    6.8832    0.2543    1.3578 H   0  0
    1.0161   -5.3036    1.1214 H   0  0
    5.2477   -0.6658   -1.2480 H   0  0
    5.0159   -2.3444   -1.8124 H   0  0
    6.5913    2.7036    1.4021 H   0  0
    8.2255    2.9747   -2.5807 H   0  0
    1.2572   -2.9857    2.7732 H   0  0
    0.5188   -2.0762   -1.3849 H   0  0
    2.8951   -1.6864   -1.7338 H   0  0
    3.6624   -2.6289    2.4006 H   0  0
   10.3254   -0.9749   -1.9249 H   0  0
    8.4016   -2.9928    1.3796 H   0  0
   -2.3112   -5.6725   -1.4477 H   0  0
   -2.8772   -6.2933    0.1256 H   0  0
   -4.7582   -6.1647   -1.5040 H   0  0
   -4.4589   -4.4222   -1.7099 H   0  0
   -5.0137   -5.0317   -0.1551 H   0  0
   10.5649   -4.0761    1.9493 H   0  0
   12.4433   -2.0758   -1.3487 H   0  0
   12.5762   -3.6217    0.5825 H   0  0
  2  4  1  0
  3  1  1  0
  4  8  1  0
  4 19  1  0
  4 32  1  0
  5  1  2  0
  5 33  1  0
  6  1  1  0
  7  2  2  0
  8 11  1  0
  8 34  1  0
  8 35  1  0
  9  3  1  0
  9 36  1  0
 10  3  2  0
 10 37  1  0
 11 20  1  0
 12  2  1  0
 12 38  1  0
 13 16  2  0
 14 24  1  0
 15  5  1  0
 15 39  1  0
 15 40  1  0
 16 10  1  0
 16 41  1  0
 17  9  2  0
 17 13  1  0
 17 42  1  0
 18 13  1  0
 20 23  2  0
 20 43  1  0
 21 11  2  0
 21 22  1  0
 21 44  1  0
 22 14  2  0
 22 45  1  0
 23 14  1  0
 23 46  1  0
 24 15  1  0
 25  6  1  0
 25 47  1  0
 26  6  2  0
 26 48  1  0
 27 19  1  0
 27 49  1  0
 27 50  1  0
 28 27  1  0
 28 51  1  0
 28 52  1  0
 28 53  1  0
 29 26  1  0
 29 54  1  0
 30 25  2  0
 30 31  1  0
 30 55  1  0
 31 29  2  0
 31 56  1  0
M  END
> <Name>
CHEMBL86688

> <Clean Energy>
39.6595

> <chembl_id>
CHEMBL86688

> <chembl_pref_name>
None

> <efficacy>
0.9

> <Forcefield>
MMFF

> <ForcefieldBase>
MMFF

> <ForcefieldFFML>
<?xml version="1.0" encoding="UTF-8"?>
<!DOCTYPE ffml SYSTEM "Ffml.dtd">
<ffml version="1.0">
<forcefield name="MMFF" derivedFrom="MMFF" base="MMFF">
<atomTypes>
<atomType
name="C100"
element="C"
mass="12.011"
annotation=""/>
<atomType
name="O101"
element="O"
mass="16"
annotation=""/>
<atomType
name="Br102"
element="Br"
mass="79.904"
annotation=""/>
<atomType
name="H103"
element="H"
mass="1.008"
annotation=""/>
</atomTypes>
<parameters>
</parameters>
</forcefield>
</ffml>

> <Initial Potential Energy>
289.75682

> <Initial RMS Gradient>
43.87038

> <Minimization Criteria>
CONJUG> Minimization exiting with gradient tolerance ( 0.0100000) satisfied.

> <CHARMm Energy>
91.30946

> <Potential Energy>
91.30946

> <RMS Gradient>
0.00989

> <Bond Energy>
6.17105

> <Angle Energy>
13.90631

> <STRBend>
-0.06983

> <Dihedral Energy>
10.34621

> <OOPLane>
0.06249

> <Van der Waals Energy>
61.05868

> <Electrostatic Energy>
-0.16547

> <Hydrogen Bond Energy>
0

> <Solvation Free Energy>
0

> <HasGasteigerCharges>
true

> <REMARK99>
REMARK  99  MacroMolecule created from Mol2 file
REMARK  99  CHEMBL86688
REMARK  99  PROTEIN
REMARK  99  GASTEIGER
REMARK  99
REMARK  99

$$$$
CHEMBL4789439
  SciTegic05292516403D

 55 58  0  0  0  0            999 V2000
   18.0320  -16.8736   -0.2036 C   0  0
   17.9018  -18.2570   -0.3371 C   0  0
   19.0395  -19.0669   -0.4668 C   0  0
   19.2946  -16.2564   -0.1884 C   0  0
   20.4494  -17.0626   -0.3316 C   0  0
   20.2987  -18.4444   -0.4626 C   0  0
   21.5867  -18.9237   -0.5748 N   0  0
   22.4533  -17.8527   -0.5404 C   0  0
   21.7852  -16.7264   -0.3818 N   0  0
   21.9737  -20.3097   -0.7013 C   0  0
   23.9374  -17.9586   -0.7032 C   0  0
   24.4510  -18.6697    0.4315 O   0  0
   25.7502  -18.3620    0.7296 C   0  0
   26.0284  -18.1127    2.0758 C   0  0
   27.3242  -17.7969    2.4831 C   0  0
   28.3500  -17.7435    1.5423 C   0  0
   28.0733  -18.0175    0.1965 C   0  0
   26.7767  -18.3442   -0.2144 C   0  0
   29.1648  -18.0060   -0.8012 C   0  0
   29.9266  -16.8927   -0.7159 O   0  0
   29.3511  -18.8983   -1.6085 O   0  0
   16.6997  -18.9365   -0.4070 O   0  0
   15.5544  -18.2901   -0.0174 C   0  0
   15.2958  -18.0585    1.3313 C   0  0
   14.0952  -17.4571    1.6992 C   0  0
   13.1816  -17.1167    0.7053 C   0  0
   13.4104  -17.3525   -0.6097 N   0  0
   14.5834  -17.9443   -0.9579 C   0  0
   14.7951  -18.2060   -2.4190 C   0  0
   11.8806  -16.4651    1.0703 C   0  0
   19.2372  -14.8727   -0.0362 O   0  0
   20.4988  -14.2134   -0.0452 C   0  0
   17.1573  -16.2334   -0.1219 H   0  0
   18.9343  -20.1410   -0.5821 H   0  0
   22.7359  -20.3994   -1.4792 H   0  0
   21.1103  -20.9154   -0.9839 H   0  0
   22.3644  -20.6442    0.2628 H   0  0
   24.1828  -18.5002   -1.6234 H   0  0
   24.3568  -16.9455   -0.7617 H   0  0
   25.2296  -18.1590    2.8128 H   0  0
   27.5342  -17.6068    3.5333 H   0  0
   29.3630  -17.5248    1.8698 H   0  0
   26.5948  -18.5947   -1.2555 H   0  0
   29.5230  -16.1949   -0.1622 H   0  0
   16.0210  -18.3433    2.0877 H   0  0
   13.8746  -17.2627    2.7441 H   0  0
   15.6666  -17.6522   -2.7814 H   0  0
   13.9250  -17.8856   -3.0015 H   0  0
   14.9450  -19.2753   -2.5967 H   0  0
   11.2837  -16.2589    0.1761 H   0  0
   12.0657  -15.5165    1.5833 H   0  0
   11.2998  -17.1221    1.7248 H   0  0
   20.3106  -13.1424    0.0789 H   0  0
   21.0086  -14.3448   -1.0050 H   0  0
   21.1205  -14.5339    0.7967 H   0  0
  1  2  2  0
  1 33  1  0
  2  3  1  0
  2 22  1  0
  3  6  2  0
  3 34  1  0
  4  1  1  0
  4 31  1  0
  5  4  2  0
  5  6  1  0
  6  7  1  0
  7  8  1  0
  7 10  1  0
  8  9  2  0
  8 11  1  0
  9  5  1  0
 10 35  1  0
 10 36  1  0
 10 37  1  0
 11 12  1  0
 11 38  1  0
 11 39  1  0
 12 13  1  0
 13 14  2  0
 14 15  1  0
 14 40  1  0
 15 16  2  0
 15 41  1  0
 16 17  1  0
 16 42  1  0
 17 18  2  0
 17 19  1  0
 18 13  1  0
 18 43  1  0
 19 20  1  0
 19 21  2  0
 20 44  1  0
 22 23  1  0
 23 24  2  0
 24 25  1  0
 24 45  1  0
 25 26  2  0
 25 46  1  0
 26 27  1  0
 26 30  1  0
 27 28  2  0
 28 23  1  0
 28 29  1  0
 29 47  1  0
 29 48  1  0
 29 49  1  0
 30 50  1  0
 30 51  1  0
 30 52  1  0
 31 32  1  0
 32 53  1  0
 32 54  1  0
 32 55  1  0
M  END
> <Name>
CHEMBL4789439

> <Clean Energy>
36.521801

> <chembl_id>
CHEMBL4789439

> <chembl_pref_name>
None

> <efficacy>
0.99

> <Forcefield>
MMFF

> <ForcefieldBase>
MMFF

> <ForcefieldFFML>
<?xml version="1.0" encoding="UTF-8"?>
<!DOCTYPE ffml SYSTEM "Ffml.dtd">
<ffml version="1.0">
<forcefield name="MMFF" derivedFrom="MMFF" base="MMFF">
<atomTypes>
<atomType
name="C100"
element="C"
mass="12.011"
annotation=""/>
<atomType
name="N101"
element="N"
mass="14.007"
annotation=""/>
<atomType
name="O102"
element="O"
mass="16"
annotation=""/>
<atomType
name="H103"
element="H"
mass="1.008"
annotation=""/>
</atomTypes>
<parameters>
</parameters>
</forcefield>
</ffml>

> <Initial Potential Energy>
247.83805

> <Initial RMS Gradient>
50.51416

> <Minimization Criteria>
STEEPD> Minimization exiting with gradient tolerance ( 3.0000000) satisfied.

> <CHARMm Energy>
94.94684

> <Potential Energy>
94.94684

> <RMS Gradient>
0.06561

> <Bond Energy>
5.31314

> <Angle Energy>
20.34001

> <STRBend>
0.73979

> <Dihedral Energy>
15.93738

> <OOPLane>
0.1077

> <Van der Waals Energy>
63.13398

> <Electrostatic Energy>
-10.62517

> <Hydrogen Bond Energy>
0

> <Solvation Free Energy>
0

> <HasGasteigerCharges>
true

> <REMARK99>
REMARK  99  MacroMolecule created from Mol2 file
REMARK  99  CHEMBL4789439
REMARK  99  PROTEIN
REMARK  99  GASTEIGER
REMARK  99
REMARK  99

$$$$
CHEMBL1935611
  SciTegic05292516403D

 76 78  0  0  0  0            999 V2000
   25.0555   -3.4056   -0.3699 N   0  0
   26.1682   -4.2441   -0.3212 C   0  0
   27.5371   -3.5953   -0.1788 C   0  0
   26.0292   -5.4651   -0.3830 O   0  0
   28.6516   -4.6266    0.0000 C   0  0
   30.0153   -3.9516    0.1526 C   0  0
   31.1293   -4.9829    0.3299 C   0  0
   32.4869   -4.3157    0.4823 C   0  0
   20.2712   -1.4949   -0.4662 C   0  0
   20.1252   -2.8564   -0.2004 C   0  0
   21.2634   -3.6772   -0.2150 C   0  0
   21.5302   -0.9633   -0.7550 C   0  0
   22.6606   -1.7853   -0.7674 C   0  0
   22.5408   -3.1528   -0.4916 C   0  0
   23.7489   -4.0581   -0.5808 C   0  0
   25.1045   -1.9243   -0.3017 C   0  0  1  0  0  0
   24.0117   -1.2329   -1.1163 C   0  0
   25.1078   -1.4004    1.1445 C   0  0
   25.0280   -2.3664    2.0890 O   0  0
   25.2641   -0.2210    1.4341 O   0  0
   18.9374   -3.4902    0.0741 O   0  0
   17.7516   -2.6806    0.0279 C   0  0
   16.5155   -3.5368    0.3101 C   0  0
   15.2026   -2.8172    0.2787 C   0  0
   14.8700   -1.4970    0.0651 C   0  0
   13.5154   -1.3876    0.1504 O   0  0
   13.0342   -2.6566    0.4166 C   0  0
   14.0334   -3.5292    0.4966 N   0  0
   15.5947   -0.2449   -0.2166 C   0  0
   11.6423   -2.9090    0.5726 C   0  0
   11.1723   -4.1375    0.8422 C   0  0
    9.7161   -4.4579    1.0252 C   0  0
    9.2314   -5.4530   -0.0341 C   0  0
    7.7821   -5.9259    0.1877 C   0  0
    7.4359   -7.0267   -0.8183 C   0  0
    6.7700   -4.7852    0.0713 C   0  0
   27.7327   -3.0058   -1.0813 H   0  0
   27.5244   -2.9232    0.6854 H   0  0
   28.4441   -5.2441    0.8829 H   0  0
   28.6701   -5.3043   -0.8627 H   0  0
   30.2216   -3.3361   -0.7315 H   0  0
   29.9971   -3.2781    1.0181 H   0  0
   30.9298   -5.5984    1.2148 H   0  0
   31.1547   -5.6563   -0.5347 H   0  0
   33.2686   -5.0714    0.6084 H   0  0
   32.5051   -3.6589    1.3578 H   0  0
   32.7317   -3.7178   -0.4014 H   0  0
   19.4287   -0.8123   -0.4649 H   0  0
   21.1459   -4.7422   -0.0208 H   0  0
   21.6188    0.0998   -0.9707 H   0  0
   23.6574   -4.8619    0.1603 H   0  0
   23.7716   -4.5209   -1.5753 H   0  0
   26.0703   -1.6083   -0.7101 H   0  0
   24.1813   -1.4036   -2.1869 H   0  0
   24.0382   -0.1496   -0.9484 H   0  0
   24.7180   -3.2075    1.6900 H   0  0
   17.8251   -1.8936    0.7880 H   0  0
   17.6583   -2.2340   -0.9694 H   0  0
   16.4830   -4.3604   -0.4146 H   0  0
   16.6322   -4.0146    1.2912 H   0  0
   14.9059    0.6004   -0.3154 H   0  0
   16.1570   -0.3259   -1.1514 H   0  0
   16.2924   -0.0119    0.5931 H   0  0
   10.9746   -2.0622    0.4651 H   0  0
   11.8730   -4.9664    0.9494 H   0  0
    9.5792   -4.8840    2.0260 H   0  0
    9.1204   -3.5394    0.9828 H   0  0
    9.3248   -5.0018   -1.0309 H   0  0
    9.8920   -6.3305   -0.0272 H   0  0
    7.7020   -6.3548    1.1947 H   0  0
    6.4209   -7.4024   -0.6507 H   0  0
    8.1235   -7.8735   -0.7212 H   0  0
    7.4953   -6.6574   -1.8478 H   0  0
    5.7461   -5.1640    0.1611 H   0  0
    6.8573   -4.2738   -0.8932 H   0  0
    6.9104   -4.0449    0.8646 H   0  0
  1  2  1  0
  1 16  1  0
  2  3  1  0
  2  4  2  0
  3  5  1  0
  3 37  1  0
  3 38  1  0
  5  6  1  0
  5 39  1  0
  5 40  1  0
  6  7  1  0
  6 41  1  0
  6 42  1  0
  7  8  1  0
  7 43  1  0
  7 44  1  0
  8 45  1  0
  8 46  1  0
  8 47  1  0
  9 10  2  0
  9 48  1  0
 10 11  1  0
 10 21  1  0
 11 14  2  0
 11 49  1  0
 12  9  1  0
 12 50  1  0
 13 12  2  0
 13 14  1  0
 13 17  1  0
 14 15  1  0
 15  1  1  0
 15 51  1  0
 15 52  1  0
 16 17  1  0
 16 18  1  0
 16 53  1  0
 17 54  1  0
 17 55  1  0
 18 19  1  0
 18 20  2  0
 19 56  1  0
 21 22  1  0
 22 23  1  0
 22 57  1  0
 22 58  1  0
 23 24  1  0
 23 59  1  0
 23 60  1  0
 24 25  2  0
 25 26  1  0
 25 29  1  0
 26 27  1  0
 27 28  2  0
 27 30  1  0
 28 24  1  0
 29 61  1  0
 29 62  1  0
 29 63  1  0
 30 31  2  0
 30 64  1  0
 31 32  1  0
 31 65  1  0
 32 33  1  0
 32 66  1  0
 32 67  1  0
 33 34  1  0
 33 68  1  0
 33 69  1  0
 34 35  1  0
 34 36  1  0
 34 70  1  0
 35 71  1  0
 35 72  1  0
 35 73  1  0
 36 74  1  0
 36 75  1  0
 36 76  1  0
M  END
> <Name>
CHEMBL1935611

> <Clean Energy>
61.2383

> <chembl_id>
CHEMBL1935611

> <chembl_pref_name>
None

> <efficacy>
0.989473684

> <Forcefield>
MMFF

> <ForcefieldBase>
MMFF

> <ForcefieldFFML>
<?xml version="1.0" encoding="UTF-8"?>
<!DOCTYPE ffml SYSTEM "Ffml.dtd">
<ffml version="1.0">
<forcefield name="MMFF" derivedFrom="MMFF" base="MMFF">
<atomTypes>
<atomType
name="N100"
element="N"
mass="14.007"
annotation=""/>
<atomType
name="C101"
element="C"
mass="12.011"
annotation=""/>
<atomType
name="O102"
element="O"
mass="16"
annotation=""/>
<atomType
name="H103"
element="H"
mass="1.008"
annotation=""/>
</atomTypes>
<parameters>
</parameters>
</forcefield>
</ffml>

> <Initial Potential Energy>
121.87286

> <Initial RMS Gradient>
20.14464

> <Minimization Criteria>
CONJUG> Minimization exiting with gradient tolerance ( 0.0100000) satisfied.

> <CHARMm Energy>
29.97328

> <Potential Energy>
29.97328

> <RMS Gradient>
0.00955

> <Bond Energy>
7.11519

> <Angle Energy>
18.60061

> <STRBend>
0.44541

> <Dihedral Energy>
-17.66593

> <OOPLane>
0.22697

> <Van der Waals Energy>
54.13816

> <Electrostatic Energy>
-32.88713

> <Hydrogen Bond Energy>
0

> <Solvation Free Energy>
0

> <HasGasteigerCharges>
true

> <REMARK99>
REMARK  99  MacroMolecule created from Mol2 file
REMARK  99  CHEMBL1935611
REMARK  99  PROTEIN
REMARK  99  GASTEIGER
REMARK  99
REMARK  99

$$$$
CHEMBL4443588
  SciTegic05292516403D

 73 76  0  0  0  0            999 V2000
   27.2622   -0.8771   -0.0739 N   0  0
   27.1876   -2.1231   -0.4246 C   0  0
   28.2181   -2.8079   -1.0519 N   0  0
   29.2828   -2.0678   -1.5358 C   0  0
   29.4766   -0.7211   -0.9452 C   0  0
   28.4469   -0.2136   -0.2493 C   0  0
   28.4917    1.1185    0.4510 C   0  0
   30.0570   -2.4726   -2.4030 O   0  0
   30.8146   -0.0911   -1.1993 C   0  0
   31.8980   -0.7920   -0.3995 C   0  0
   33.0680   -0.0914   -0.5135 O   0  0
   31.7700   -1.8329    0.2369 O   0  0
   25.8920   -2.8781   -0.1405 C   0  0
   24.8139   -2.0447    0.5538 C   0  0
   23.5415   -2.8616    0.7785 C   0  0
   22.4698   -2.0425    1.4801 C   0  0
   28.1331   -4.2230   -1.4932 C   0  0
   29.1928   -5.2029   -0.9822 C   0  0
   29.6437   -6.2440   -1.8215 C   0  0
   30.6366   -7.1644   -1.4141 C   0  0
   31.2167   -7.0860   -0.1433 C   0  0
   30.6927   -6.0989    0.7244 C   0  0
   29.7008   -5.1766    0.3180 C   0  0
   32.5194   -7.7466    0.1660 C   0  0
   32.8176   -9.1207    0.3764 C   0  0
   34.1637   -9.4923    0.6614 C   0  0
   35.2043   -8.5635    0.6987 C   0  0
   34.9293   -7.2306    0.4627 C   0  0
   33.6162   -6.8374    0.2051 C   0  0
   31.8326  -10.2434    0.3768 C   0  0
   30.5481  -10.1692    0.4860 N   0  0
   30.0831  -11.5408    0.5080 O   0  0
   31.1963  -12.3420    0.4141 C   0  0
   32.2589  -11.5278    0.2884 N   0  0
   31.2243  -13.5661    0.4498 O   0  0
   34.1799   -0.7260    0.1354 C   0  0
   35.4375    0.1237   -0.0875 C   0  0
   36.6674   -0.5841    0.4769 C   0  0
   35.2892    1.5134    0.5356 C   0  0
   29.5079    1.4488    0.6814 H   0  0
   27.9620    1.0636    1.4092 H   0  0
   28.0052    1.8829   -0.1630 H   0  0
   31.0716   -0.1540   -2.2628 H   0  0
   30.8197    0.9695   -0.9317 H   0  0
   25.4995   -3.2475   -1.0954 H   0  0
   26.1346   -3.7456    0.4849 H   0  0
   25.1917   -1.6795    1.5168 H   0  0
   24.5781   -1.1611   -0.0523 H   0  0
   23.1513   -3.2142   -0.1835 H   0  0
   23.7691   -3.7488    1.3809 H   0  0
   21.5701   -2.6468    1.6315 H   0  0
   22.1942   -1.1659    0.8853 H   0  0
   22.8170   -1.6980    2.4595 H   0  0
   27.1638   -4.6580   -1.2407 H   0  0
   28.1844   -4.1997   -2.5901 H   0  0
   29.2563   -6.3265   -2.8362 H   0  0
   31.0034   -7.8909   -2.1360 H   0  0
   31.1173   -5.9846    1.7216 H   0  0
   29.3760   -4.4137    1.0226 H   0  0
   34.4444  -10.5176    0.8916 H   0  0
   36.2206   -8.8860    0.9169 H   0  0
   35.7242   -6.4897    0.4809 H   0  0
   33.4367   -5.7763    0.0158 H   0  0
   33.1726  -11.9384    0.1831 H   0  0
   33.9713   -0.8247    1.2080 H   0  0
   34.3258   -1.7229   -0.2985 H   0  0
   35.5766    0.2621   -1.1673 H   0  0
   37.5725    0.0053    0.2963 H   0  0
   36.8051   -1.5611    0.0017 H   0  0
   36.5761   -0.7423    1.5569 H   0  0
   36.1935    2.1093    0.3727 H   0  0
   35.1169    1.4486    1.6154 H   0  0
   34.4506    2.0590    0.0907 H   0  0
  1  2  2  0
  1  6  1  0
  2  3  1  0
  2 13  1  0
  3  4  1  0
  3 17  1  0
  4  5  1  0
  4  8  2  0
  5  6  2  0
  5  9  1  0
  6  7  1  0
  7 40  1  0
  7 41  1  0
  7 42  1  0
  9 10  1  0
  9 43  1  0
  9 44  1  0
 10 11  1  0
 10 12  2  0
 11 36  1  0
 13 14  1  0
 13 45  1  0
 13 46  1  0
 14 15  1  0
 14 47  1  0
 14 48  1  0
 15 16  1  0
 15 49  1  0
 15 50  1  0
 16 51  1  0
 16 52  1  0
 16 53  1  0
 17 18  1  0
 17 54  1  0
 17 55  1  0
 18 19  2  0
 19 20  1  0
 19 56  1  0
 20 21  2  0
 20 57  1  0
 21 22  1  0
 21 24  1  0
 22 23  2  0
 22 58  1  0
 23 18  1  0
 23 59  1  0
 24 25  2  0
 25 26  1  0
 25 30  1  0
 26 27  2  0
 26 60  1  0
 27 28  1  0
 27 61  1  0
 28 29  2  0
 28 62  1  0
 29 24  1  0
 29 63  1  0
 30 31  2  0
 31 32  1  0
 32 33  1  0
 33 34  1  0
 33 35  2  0
 34 30  1  0
 34 64  1  0
 36 37  1  0
 36 65  1  0
 36 66  1  0
 37 38  1  0
 37 39  1  0
 37 67  1  0
 38 68  1  0
 38 69  1  0
 38 70  1  0
 39 71  1  0
 39 72  1  0
 39 73  1  0
M  END
> <Name>
CHEMBL4443588

> <Clean Energy>
43.428501

> <chembl_id>
CHEMBL4443588

> <chembl_pref_name>
None

> <efficacy>
1.082621083

> <Forcefield>
MMFF

> <ForcefieldBase>
MMFF

> <ForcefieldFFML>
<?xml version="1.0" encoding="UTF-8"?>
<!DOCTYPE ffml SYSTEM "Ffml.dtd">
<ffml version="1.0">
<forcefield name="MMFF" derivedFrom="MMFF" base="MMFF">
<atomTypes>
<atomType
name="N100"
element="N"
mass="14.007"
annotation=""/>
<atomType
name="C101"
element="C"
mass="12.011"
annotation=""/>
<atomType
name="O102"
element="O"
mass="16"
annotation=""/>
<atomType
name="H103"
element="H"
mass="1.008"
annotation=""/>
</atomTypes>
<parameters>
</parameters>
</forcefield>
</ffml>

> <Initial Potential Energy>
135.01169

> <Initial RMS Gradient>
25.47269

> <Minimization Criteria>
STEEPD> Minimization exiting with gradient tolerance ( 3.0000000) satisfied.

> <CHARMm Energy>
-6.3111

> <Potential Energy>
-6.3111

> <RMS Gradient>
0.06098

> <Bond Energy>
12.49351

> <Angle Energy>
27.55201

> <STRBend>
1.33828

> <Dihedral Energy>
0.10062

> <OOPLane>
0.65193

> <Van der Waals Energy>
68.0633

> <Electrostatic Energy>
-116.51074

> <Hydrogen Bond Energy>
0

> <Solvation Free Energy>
0

> <HasGasteigerCharges>
true

> <REMARK99>
REMARK  99  MacroMolecule created from Mol2 file
REMARK  99  CHEMBL4443588
REMARK  99  PROTEIN
REMARK  99  GASTEIGER
REMARK  99
REMARK  99

$$$$
CHEMBL4759931
  SciTegic05292516403D

 59 62  0  0  0  0            999 V2000
   30.6130  -11.0950    0.6907 C   0  0
   30.5199  -12.4229    0.2678 C   0  0
   31.6363  -13.1162   -0.2026 C   0  0
   31.8175  -10.3866    0.6023 C   0  0
   32.9469  -11.0549    0.0765 C   0  0
   32.8354  -12.3974   -0.2996 C   0  0
   34.0960  -12.7436   -0.7321 N   0  0
   34.9026  -11.6339   -0.6320 C   0  0
   34.2258  -10.6083   -0.1575 N   0  0
   34.5088  -14.0518   -1.1864 C   0  0
   36.3444  -11.6083   -1.0044 C   0  0
   37.0087  -12.5515   -0.1538 O   0  0
   38.2851  -12.1772    0.1611 C   0  0
   38.6002  -12.1202    1.5195 C   0  0
   39.8865  -11.7703    1.9273 C   0  0
   40.8628  -11.4885    0.9728 C   0  0
   40.5456  -11.5619   -0.3909 C   0  0
   39.2589  -11.9234   -0.8037 C   0  0
   41.5814  -11.3042   -1.4155 C   0  0
   42.3090  -10.1958   -1.1524 O   0  0
   41.7510  -12.0103   -2.3933 O   0  0
   29.3319  -13.1233    0.3248 O   0  0
   28.2543  -12.4801   -0.2381 C   0  0
   28.2135  -12.1941   -1.5988 C   0  0
   27.1015  -11.5266   -2.0791 C   0  0
   26.0618  -11.1434   -1.3062 N   0  0
   26.1414  -11.4502    0.0086 C   0  0
   27.1953  -12.1322    0.5851 C   0  0
   25.1388  -11.0587    0.8709 O   0  0
   24.1005  -10.3264    0.2267 C   0  0
   31.7142   -9.0707    1.0430 O   0  0
   32.9140   -8.2913    1.1019 C   0  0
   32.6996   -7.2543    2.2047 C   0  0
   33.1398   -7.5816   -0.2303 C   0  0
   29.7413  -10.5843    1.0924 H   0  0
   31.5581  -14.1556   -0.5029 H   0  0
   35.2324  -13.9445   -1.9977 H   0  0
   33.6428  -14.6011   -1.5629 H   0  0
   34.9529  -14.5819   -0.3405 H   0  0
   36.4801  -11.8995   -2.0516 H   0  0
   36.7307  -10.5896   -0.8659 H   0  0
   37.8383  -12.3475    2.2620 H   0  0
   40.1267  -11.7330    2.9872 H   0  0
   41.8717  -11.2499    1.2996 H   0  0
   39.0361  -12.0191   -1.8629 H   0  0
   41.9131   -9.6341   -0.4567 H   0  0
   29.0273  -12.4684   -2.2594 H   0  0
   27.0214  -11.2665   -3.1303 H   0  0
   27.2038  -12.3513    1.6452 H   0  0
   23.3613  -10.0569    0.9873 H   0  0
   23.5936  -10.9378   -0.5280 H   0  0
   24.4824   -9.3971   -0.2101 H   0  0
   33.7808   -8.8888    1.3992 H   0  0
   33.5732   -6.6043    2.3143 H   0  0
   32.5129   -7.7523    3.1626 H   0  0
   31.8212   -6.6327    1.9976 H   0  0
   34.0333   -6.9503   -0.1942 H   0  0
   32.2794   -6.9534   -0.4879 H   0  0
   33.2554   -8.2954   -1.0509 H   0  0
  1  2  2  0
  1 35  1  0
  2  3  1  0
  2 22  1  0
  3  6  2  0
  3 36  1  0
  4  1  1  0
  4 31  1  0
  5  4  2  0
  5  6  1  0
  6  7  1  0
  7  8  1  0
  7 10  1  0
  8  9  2  0
  8 11  1  0
  9  5  1  0
 10 37  1  0
 10 38  1  0
 10 39  1  0
 11 12  1  0
 11 40  1  0
 11 41  1  0
 12 13  1  0
 13 14  2  0
 14 15  1  0
 14 42  1  0
 15 16  2  0
 15 43  1  0
 16 17  1  0
 16 44  1  0
 17 18  2  0
 17 19  1  0
 18 13  1  0
 18 45  1  0
 19 20  1  0
 19 21  2  0
 20 46  1  0
 22 23  1  0
 23 24  2  0
 24 25  1  0
 24 47  1  0
 25 26  2  0
 25 48  1  0
 26 27  1  0
 27 28  2  0
 27 29  1  0
 28 23  1  0
 28 49  1  0
 29 30  1  0
 30 50  1  0
 30 51  1  0
 30 52  1  0
 31 32  1  0
 32 33  1  0
 32 34  1  0
 32 53  1  0
 33 54  1  0
 33 55  1  0
 33 56  1  0
 34 57  1  0
 34 58  1  0
 34 59  1  0
M  END
> <Name>
CHEMBL4759931

> <Clean Energy>
39.014702

> <chembl_id>
CHEMBL4759931

> <chembl_pref_name>
None

> <efficacy>
1

> <Forcefield>
MMFF

> <ForcefieldBase>
MMFF

> <ForcefieldFFML>
<?xml version="1.0" encoding="UTF-8"?>
<!DOCTYPE ffml SYSTEM "Ffml.dtd">
<ffml version="1.0">
<forcefield name="MMFF" derivedFrom="MMFF" base="MMFF">
<atomTypes>
<atomType
name="C100"
element="C"
mass="12.011"
annotation=""/>
<atomType
name="N101"
element="N"
mass="14.007"
annotation=""/>
<atomType
name="O102"
element="O"
mass="16"
annotation=""/>
<atomType
name="H103"
element="H"
mass="1.008"
annotation=""/>
</atomTypes>
<parameters>
</parameters>
</forcefield>
</ffml>

> <Initial Potential Energy>
208.4128

> <Initial RMS Gradient>
44.74723

> <Minimization Criteria>
STEEPD> Minimization exiting with gradient tolerance ( 3.0000000) satisfied.

> <CHARMm Energy>
57.94822

> <Potential Energy>
57.94822

> <RMS Gradient>
0.05458

> <Bond Energy>
4.43226

> <Angle Energy>
21.92497

> <STRBend>
0.93615

> <Dihedral Energy>
17.77392

> <OOPLane>
0.05364

> <Van der Waals Energy>
68.58192

> <Electrostatic Energy>
-55.75464

> <Hydrogen Bond Energy>
0

> <Solvation Free Energy>
0

> <HasGasteigerCharges>
true

> <REMARK99>
REMARK  99  MacroMolecule created from Mol2 file
REMARK  99  CHEMBL4759931
REMARK  99  PROTEIN
REMARK  99  GASTEIGER
REMARK  99
REMARK  99

$$$$
CHEMBL3393177
  SciTegic05292516403D

 46 48  0  0  0  0            999 V2000
    1.7455   -1.0132    0.5235 C   0  0
    0.4589   -0.3324    0.3477 C   0  0
    0.4602    1.0624    0.2686 C   0  0
   -0.7050    1.7218   -0.1140 C   0  0
   -1.8625    0.9777   -0.3713 C   0  0
   -1.8653   -0.4140   -0.2296 C   0  0
   -0.6977   -1.0776    0.1299 C   0  0
    2.0374   -1.7359    1.4547 O   0  0
    2.5551   -0.7380   -0.5293 O   0  0
   -1.5741    3.9530   -0.7719 C   0  0
   -1.3825    5.3972   -0.4741 C   0  0
   -2.4987    6.1352   -0.0195 C   0  0
   -2.2895    7.4526    0.3967 C   0  0
   -1.0096    8.0304    0.3328 C   0  0
    0.0697    7.2947   -0.1527 C   0  0
   -0.1047    5.9764   -0.5588 C   0  0
   -2.5633    3.6077   -1.4091 O   0  0
   -0.6418    3.1221   -0.1955 N   0  0
   -4.9675    5.9446    0.4828 C   0  0
   -6.1137    4.9899    0.3261 C   0  0
   -7.3923    5.5152    0.1064 C   0  0
   -8.4982    4.6690   -0.0698 C   0  0
   -8.3535    3.2774   -0.0213 C   0  0
   -7.0730    2.7571    0.2346 C   0  0
   -5.9622    3.6006    0.4038 C   0  0
   -5.1822    7.0445    0.9801 O   0  0
   -3.7636    5.4925   -0.0021 N   0  0
   -9.5427    2.3480   -0.2185 C   0  0
  -10.5021    2.8588   -1.0294 F   0  0
   -9.1399    1.1722   -0.7841 F   0  0
  -10.1403    2.0193    0.9544 F   0  0
    1.6333    8.0065   -0.2289 Cl  0  0
    1.3865    1.6039    0.4612 H   0  0
   -2.7944    1.4561   -0.6578 H   0  0
   -2.7780   -0.9767   -0.4153 H   0  0
   -0.6903   -2.1612    0.2083 H   0  0
    2.0826   -0.2084   -1.2089 H   0  0
   -3.1077    8.0562    0.7748 H   0  0
   -0.8612    9.0560    0.6646 H   0  0
    0.7451    5.4149   -0.9389 H   0  0
    0.1461    3.5567    0.2624 H   0  0
   -7.5402    6.5949    0.0635 H   0  0
   -9.4774    5.1117   -0.2514 H   0  0
   -6.9264    1.6788    0.2971 H   0  0
   -4.9943    3.1518    0.6127 H   0  0
   -3.7821    4.5910   -0.4814 H   0  0
  1  2  1  0
  1  8  2  0
  1  9  1  0
  2  3  1  0
  2  7  2  0
  3  4  2  0
  3 33  1  0
  4  5  1  0
  4 18  1  0
  5  6  2  0
  5 34  1  0
  6  7  1  0
  6 35  1  0
  7 36  1  0
  9 37  1  0
 10 11  1  0
 10 17  2  0
 10 18  1  0
 11 12  1  0
 11 16  2  0
 12 13  2  0
 12 27  1  0
 13 14  1  0
 13 38  1  0
 14 15  2  0
 14 39  1  0
 15 16  1  0
 15 32  1  0
 16 40  1  0
 18 41  1  0
 19 20  1  0
 19 26  2  0
 19 27  1  0
 20 21  1  0
 20 25  2  0
 21 22  2  0
 21 42  1  0
 22 23  1  0
 22 43  1  0
 23 24  2  0
 23 28  1  0
 24 25  1  0
 24 44  1  0
 25 45  1  0
 27 46  1  0
 28 29  1  0
 28 30  1  0
 28 31  1  0
M  END
> <Name>
CHEMBL3393177

> <Clean Energy>
12.6425

> <chembl_id>
CHEMBL3393177

> <chembl_pref_name>
None

> <efficacy>
3.941120608

> <Forcefield>
MMFF

> <ForcefieldBase>
MMFF

> <ForcefieldFFML>
<?xml version="1.0" encoding="UTF-8"?>
<!DOCTYPE ffml SYSTEM "Ffml.dtd">
<ffml version="1.0">
<forcefield name="MMFF" derivedFrom="MMFF" base="MMFF">
<atomTypes>
<atomType
name="C100"
element="C"
mass="12.011"
annotation=""/>
<atomType
name="O101"
element="O"
mass="16"
annotation=""/>
<atomType
name="N102"
element="N"
mass="14.007"
annotation=""/>
<atomType
name="F103"
element="F"
mass="18.998"
annotation=""/>
<atomType
name="Cl104"
element="Cl"
mass="35.453"
annotation=""/>
<atomType
name="H105"
element="H"
mass="1.008"
annotation=""/>
</atomTypes>
<parameters>
</parameters>
</forcefield>
</ffml>

> <Initial Potential Energy>
147.42437

> <Initial RMS Gradient>
33.68124

> <Minimization Criteria>
STEEPD> Minimization exiting with gradient tolerance ( 3.0000000) satisfied.

> <CHARMm Energy>
71.38999

> <Potential Energy>
71.38999

> <RMS Gradient>
0.08026

> <Bond Energy>
6.46715

> <Angle Energy>
11.57707

> <STRBend>
1.22591

> <Dihedral Energy>
18.34107

> <OOPLane>
0.31737

> <Van der Waals Energy>
65.75373

> <Electrostatic Energy>
-32.2923

> <Hydrogen Bond Energy>
0

> <Solvation Free Energy>
0

> <HasGasteigerCharges>
true

> <REMARK99>
REMARK  99  MacroMolecule created from Mol2 file
REMARK  99  CHEMBL3393177
REMARK  99  PROTEIN
REMARK  99  GASTEIGER
REMARK  99
REMARK  99

$$$$
CHEMBL5074984
  SciTegic05292516403D

 61 64  0  0  0  0            999 V2000
   26.9192  -33.1029    1.3714 O   0  0
   25.5567  -33.0012    0.8787 S   0  0
   24.4123  -33.3729    1.6976 O   0  0
   17.4621  -26.1990    1.6452 F   0  0
   16.2560  -26.5329    1.1021 C   0  0
   15.3176  -26.2239    2.0423 F   0  0
   11.6344  -31.9230    1.4166 O   0  0
   12.5926  -31.2061    0.5892 S   0  0
   12.8534  -31.6470   -0.7675 O   0  0
   15.2659  -28.8533    1.2284 C   0  0
   15.1365  -30.1985    0.8444 C   0  0
   15.9956  -30.6851   -0.1396 C   0  0
   16.9904  -29.8636   -0.6785 C   0  0
   17.1632  -28.5282   -0.2569 C   0  0
   16.2417  -27.9938    0.6707 C   0  0
   18.3827  -27.7781   -0.7779 C   0  0
   19.5994  -28.4626   -0.3766 N   0  0
   20.8414  -28.1750   -0.9036 C   0  0
   21.9454  -29.0910   -0.4874 C   0  0
   21.0803  -27.2388   -1.6593 O   0  0
   21.7148  -30.4406   -0.2082 C   0  0
   22.7576  -31.2996    0.1651 C   0  0
   23.2502  -28.5832   -0.4256 C   0  0
   24.3183  -29.4280   -0.0498 C   0  0
   24.0598  -30.7754    0.2435 C   0  0
   25.2845  -31.3295    0.5825 N   0  0
   26.2890  -30.4042    0.4868 C   0  0
   25.7181  -29.2115    0.1088 C   0  0
   14.1165  -31.0981    1.5056 C   0  0
   11.9550  -29.4989    0.5262 C   0  0
   16.0376  -25.6719    0.0697 F   0  0
   25.4281  -33.8457   -0.7010 C   0  0
   25.6040  -35.3482   -0.5014 C   0  0
   26.4384  -33.3137   -1.7103 C   0  0
   12.1754  -28.7624   -0.7655 C   0  0
   10.8169  -29.3308   -0.4495 C   0  0
   14.5960  -28.4558    1.9922 H   0  0
   15.9353  -31.7202   -0.4752 H   0  0
   17.6707  -30.2885   -1.4179 H   0  0
   18.3476  -27.7260   -1.8724 H   0  0
   18.4399  -26.7523   -0.4063 H   0  0
   19.5300  -29.1319    0.3779 H   0  0
   20.7165  -30.8624   -0.2942 H   0  0
   22.5284  -32.3369    0.3996 H   0  0
   23.4489  -27.5406   -0.6687 H   0  0
   27.3167  -30.6632    0.7044 H   0  0
   26.2388  -28.2741   -0.0403 H   0  0
   14.5106  -32.1155    1.6035 H   0  0
   13.8739  -30.7421    2.5125 H   0  0
   11.9094  -28.9549    1.4576 H   0  0
   24.4138  -33.6577   -1.0700 H   0  0
   25.4820  -35.8841   -1.4484 H   0  0
   24.8623  -35.7392    0.2031 H   0  0
   26.5962  -35.5840   -0.1017 H   0  0
   26.3546  -33.8493   -2.6619 H   0  0
   27.4656  -33.4263   -1.3478 H   0  0
   26.2725  -32.2521   -1.9163 H   0  0
   12.2947  -27.6856   -0.7230 H   0  0
   12.7481  -29.2292   -1.5600 H   0  0
   10.4826  -30.1872   -1.0262 H   0  0
   10.0224  -28.6404   -0.1899 H   0  0
  2  1  2  0
  2 32  1  0
  3  2  2  0
  5  4  1  0
  5 31  1  0
  6  5  1  0
  8  7  2  0
  8 30  1  0
  9  8  2  0
 10 11  2  0
 10 37  1  0
 11 12  1  0
 11 29  1  0
 12 13  2  0
 12 38  1  0
 13 14  1  0
 13 39  1  0
 14 15  2  0
 14 16  1  0
 15  5  1  0
 15 10  1  0
 16 17  1  0
 16 40  1  0
 16 41  1  0
 17 18  1  0
 17 42  1  0
 18 19  1  0
 18 20  2  0
 19 21  2  0
 21 22  1  0
 21 43  1  0
 22 25  2  0
 22 44  1  0
 23 19  1  0
 23 45  1  0
 24 23  2  0
 24 25  1  0
 25 26  1  0
 26  2  1  0
 26 27  1  0
 27 28  2  0
 27 46  1  0
 28 24  1  0
 28 47  1  0
 29  8  1  0
 29 48  1  0
 29 49  1  0
 30 36  1  0
 30 50  1  0
 32 33  1  0
 32 34  1  0
 32 51  1  0
 33 52  1  0
 33 53  1  0
 33 54  1  0
 34 55  1  0
 34 56  1  0
 34 57  1  0
 35 30  1  0
 35 58  1  0
 35 59  1  0
 36 35  1  0
 36 60  1  0
 36 61  1  0
M  END
> <Name>
CHEMBL5074984

> <Clean Energy>
81.4888

> <chembl_id>
CHEMBL5074984

> <chembl_pref_name>
None

> <efficacy>
1.196581197

> <Forcefield>
MMFF

> <ForcefieldBase>
MMFF

> <ForcefieldFFML>
<?xml version="1.0" encoding="UTF-8"?>
<!DOCTYPE ffml SYSTEM "Ffml.dtd">
<ffml version="1.0">
<forcefield name="MMFF" derivedFrom="MMFF" base="MMFF">
<atomTypes>
<atomType
name="O100"
element="O"
mass="16"
annotation=""/>
<atomType
name="S101"
element="S"
mass="32.066"
annotation=""/>
<atomType
name="F102"
element="F"
mass="18.998"
annotation=""/>
<atomType
name="C103"
element="C"
mass="12.011"
annotation=""/>
<atomType
name="N104"
element="N"
mass="14.007"
annotation=""/>
<atomType
name="H105"
element="H"
mass="1.008"
annotation=""/>
</atomTypes>
<parameters>
</parameters>
</forcefield>
</ffml>

> <Initial Potential Energy>
256.4494

> <Initial RMS Gradient>
29.52091

> <Minimization Criteria>
CONJUG> Minimization exiting with gradient tolerance ( 0.0100000) satisfied.

> <CHARMm Energy>
143.23592

> <Potential Energy>
143.23592

> <RMS Gradient>
0.00937

> <Bond Energy>
7.14436

> <Angle Energy>
13.29837

> <STRBend>
1.17267

> <Dihedral Energy>
9.64907

> <OOPLane>
0.12617

> <Van der Waals Energy>
44.63521

> <Electrostatic Energy>
67.21006

> <Hydrogen Bond Energy>
0

> <Solvation Free Energy>
0

> <HasGasteigerCharges>
true

> <REMARK99>
REMARK  99  MacroMolecule created from Mol2 file
REMARK  99  CHEMBL5074984
REMARK  99  PROTEIN
REMARK  99  GASTEIGER
REMARK  99
REMARK  99

$$$$
CHEMBL4783659
  SciTegic05292516403D

 52 55  0  0  0  0            999 V2000
    4.4584  -20.7710   -1.0072 C   0  0
    4.3850  -22.1443   -0.7455 C   0  0
    5.5409  -22.9144   -0.5592 C   0  0
    5.6945  -20.1200   -1.0498 C   0  0
    6.8584  -20.8711   -0.8409 C   0  0
    6.7693  -22.2406   -0.6074 C   0  0
    8.0791  -22.6421   -0.4707 N   0  0
    8.8874  -21.5347   -0.6238 C   0  0
    8.1601  -20.4547   -0.8414 N   0  0
    8.5298  -23.9901   -0.2180 C   0  0
   10.3801  -21.5706   -0.6220 C   0  0
   10.8170  -22.1302    0.6201 O   0  0
   12.1691  -22.2032    0.8236 C   0  0
   12.5460  -22.6839    2.0827 C   0  0
   13.8933  -22.8252    2.4250 C   0  0
   14.8815  -22.4778    1.5075 C   0  0
   14.5101  -21.9811    0.2533 C   0  0
   13.1580  -21.8566   -0.0967 C   0  0
   15.5303  -21.6134   -0.7525 C   0  0
   16.5497  -20.8992   -0.2322 O   0  0
   15.4288  -21.8994   -1.9319 O   0  0
    3.1834  -22.8283   -0.7011 O   0  0
    2.1505  -22.1795   -0.0690 C   0  0
    2.2324  -21.8644    1.2868 C   0  0
    1.1925  -21.1611    1.8774 C   0  0
    0.1083  -20.8122    1.0892 C   0  0
   -0.0222  -21.1440   -0.2155 N   0  0
    0.9979  -21.8386   -0.7798 C   0  0
    0.8589  -22.1896   -2.2309 C   0  0
   -0.8695  -20.0667    1.7124 O   0  0
   -1.9140  -19.6675    0.8307 C   0  0
    3.5607  -20.1851   -1.1841 H   0  0
    5.4729  -23.9815   -0.3806 H   0  0
    5.7614  -19.0561   -1.2495 H   0  0
    9.4228  -24.1908   -0.8147 H   0  0
    7.7515  -24.7013   -0.5032 H   0  0
    8.7491  -24.0824    0.8485 H   0  0
   10.7252  -22.1835   -1.4631 H   0  0
   10.7608  -20.5475   -0.7275 H   0  0
   11.7808  -22.9583    2.8060 H   0  0
   14.1667  -23.2175    3.4020 H   0  0
   15.9274  -22.6251    1.7657 H   0  0
   12.9181  -21.4894   -1.0906 H   0  0
   16.4064  -20.6020    0.6863 H   0  0
    3.1052  -22.1414    1.8700 H   0  0
    1.2283  -20.8741    2.9219 H   0  0
    1.6196  -21.6707   -2.8221 H   0  0
   -0.1251  -21.8935   -2.6089 H   0  0
    0.9629  -23.2696   -2.3740 H   0  0
   -2.6254  -19.0683    1.4073 H   0  0
   -2.4536  -20.5356    0.4364 H   0  0
   -1.5310  -19.0389    0.0191 H   0  0
  1  2  2  0
  1 32  1  0
  2  3  1  0
  2 22  1  0
  3  6  2  0
  3 33  1  0
  4  1  1  0
  4 34  1  0
  5  4  2  0
  5  6  1  0
  6  7  1  0
  7  8  1  0
  7 10  1  0
  8  9  2  0
  8 11  1  0
  9  5  1  0
 10 35  1  0
 10 36  1  0
 10 37  1  0
 11 12  1  0
 11 38  1  0
 11 39  1  0
 12 13  1  0
 13 14  2  0
 14 15  1  0
 14 40  1  0
 15 16  2  0
 15 41  1  0
 16 17  1  0
 16 42  1  0
 17 18  2  0
 17 19  1  0
 18 13  1  0
 18 43  1  0
 19 20  1  0
 19 21  2  0
 20 44  1  0
 22 23  1  0
 23 24  2  0
 24 25  1  0
 24 45  1  0
 25 26  2  0
 25 46  1  0
 26 27  1  0
 26 30  1  0
 27 28  2  0
 28 23  1  0
 28 29  1  0
 29 47  1  0
 29 48  1  0
 29 49  1  0
 30 31  1  0
 31 50  1  0
 31 51  1  0
 31 52  1  0
M  END
> <Name>
CHEMBL4783659

> <Clean Energy>
32.461102

> <chembl_id>
CHEMBL4783659

> <chembl_pref_name>
None

> <efficacy>
1.06

> <Forcefield>
MMFF

> <ForcefieldBase>
MMFF

> <ForcefieldFFML>
<?xml version="1.0" encoding="UTF-8"?>
<!DOCTYPE ffml SYSTEM "Ffml.dtd">
<ffml version="1.0">
<forcefield name="MMFF" derivedFrom="MMFF" base="MMFF">
<atomTypes>
<atomType
name="C100"
element="C"
mass="12.011"
annotation=""/>
<atomType
name="N101"
element="N"
mass="14.007"
annotation=""/>
<atomType
name="O102"
element="O"
mass="16"
annotation=""/>
<atomType
name="H103"
element="H"
mass="1.008"
annotation=""/>
</atomTypes>
<parameters>
</parameters>
</forcefield>
</ffml>

> <Initial Potential Energy>
215.30254

> <Initial RMS Gradient>
47.18516

> <Minimization Criteria>
CONJUG> Minimization exiting with gradient tolerance ( 0.0100000) satisfied.

> <CHARMm Energy>
62.92084

> <Potential Energy>
62.92084

> <RMS Gradient>
0.00992

> <Bond Energy>
4.35559

> <Angle Energy>
18.13039

> <STRBend>
0.56888

> <Dihedral Energy>
11.69548

> <OOPLane>
0.08799

> <Van der Waals Energy>
64.03722

> <Electrostatic Energy>
-35.95471

> <Hydrogen Bond Energy>
0

> <Solvation Free Energy>
0

> <HasGasteigerCharges>
true

> <REMARK99>
REMARK  99  MacroMolecule created from Mol2 file
REMARK  99  CHEMBL4783659
REMARK  99  PROTEIN
REMARK  99  GASTEIGER
REMARK  99
REMARK  99

$$$$
CHEMBL4095614
  SciTegic05292516403D

 47 49  0  0  0  0            999 V2000
   27.7198    1.4864   -0.1005 N   0  0
   27.3244    1.0784    1.1278 C   0  0
   27.6451    0.6000   -1.1337 C   0  0
   26.7665   -0.5574    1.0852 S   0  0
   27.0465   -0.7306   -0.7164 C   0  0  2  0  0  0
   23.3573  -10.1564   -0.1904 C   0  0
   22.2761  -10.5937   -0.8772 N   0  0
   27.3658    1.7586    2.1386 O   0  0
   23.1598   -9.1906    0.7888 N   0  0
   28.0327    0.8751   -2.2630 O   0  0
   27.9976   -1.8708   -1.0925 C   0  0
   27.4920   -3.2279   -0.6728 C   0  0
   26.4146   -5.6470    0.2441 C   0  0
   26.4488   -3.8480   -1.3700 C   0  0
   28.0222   -3.8526    0.4617 C   0  0
   27.4832   -5.0535    0.9155 C   0  0
   25.9152   -5.0563   -0.9156 C   0  0
   25.9488   -6.7885    0.8272 O   0  0
   24.7270   -7.3254    0.3161 C   0  0
   24.2352   -8.3576    1.3267 C   0  0
   24.6172  -10.6791   -0.4887 C   0  0
   22.4381  -11.5128   -1.8557 C   0  0
   21.8395   -9.1708    1.4307 C   0  0
   24.7687  -11.6330   -1.4980 C   0  0
   23.6569  -12.0533   -2.2054 C   0  0
   21.7304  -10.2595    2.4885 C   0  0
   28.0896    2.4176   -0.2341 H   0  0
   26.0725   -0.8367   -1.2060 H   0  0
   28.1486   -1.8820   -2.1807 H   0  0
   28.9978   -1.6940   -0.6731 H   0  0
   26.0305   -3.3886   -2.2630 H   0  0
   28.8345   -3.3931    1.0218 H   0  0
   27.8823   -5.5184    1.8135 H   0  0
   25.1047   -5.5033   -1.4819 H   0  0
   23.9602   -6.5476    0.2118 H   0  0
   24.9194   -7.7798   -0.6619 H   0  0
   23.8934   -7.8231    2.2232 H   0  0
   25.0631   -8.9794    1.6892 H   0  0
   25.4981  -10.3927    0.0709 H   0  0
   21.5264  -11.8032   -2.3677 H   0  0
   21.6861   -8.1974    1.9138 H   0  0
   21.0239   -9.2595    0.7032 H   0  0
   25.7480  -12.0488   -1.7173 H   0  0
   23.7354  -12.7878   -2.9976 H   0  0
   20.7619  -10.1991    2.9949 H   0  0
   22.5170  -10.1556    3.2434 H   0  0
   21.8194  -11.2572    2.0464 H   0  0
  1 27  1  0
  2  1  1  0
  3  1  1  0
  4  2  1  0
  4  5  1  0
  5  3  1  0
  5 28  1  0
  6  9  1  0
  7  6  2  0
  8  2  2  0
  9 20  1  0
 10  3  2  0
 11  5  1  0
 11 29  1  0
 11 30  1  0
 12 11  1  0
 13 16  2  0
 13 17  1  0
 14 12  1  0
 14 31  1  0
 15 12  2  0
 15 32  1  0
 16 15  1  0
 16 33  1  0
 17 14  2  0
 17 34  1  0
 18 13  1  0
 19 18  1  0
 19 35  1  0
 19 36  1  0
 20 19  1  0
 20 37  1  0
 20 38  1  0
 21  6  1  0
 21 39  1  0
 22  7  1  0
 22 40  1  0
 23  9  1  0
 23 26  1  0
 23 41  1  0
 23 42  1  0
 24 21  2  0
 24 43  1  0
 25 22  2  0
 25 24  1  0
 25 44  1  0
 26 45  1  0
 26 46  1  0
 26 47  1  0
M  END
> <Name>
CHEMBL4095614

> <Clean Energy>
28.8535

> <chembl_id>
CHEMBL4095614

> <chembl_pref_name>
None

> <efficacy>
1.044634378

> <Forcefield>
MMFF

> <ForcefieldBase>
MMFF

> <ForcefieldFFML>
<?xml version="1.0" encoding="UTF-8"?>
<!DOCTYPE ffml SYSTEM "Ffml.dtd">
<ffml version="1.0">
<forcefield name="MMFF" derivedFrom="MMFF" base="MMFF">
<atomTypes>
<atomType
name="N100"
element="N"
mass="14.007"
annotation=""/>
<atomType
name="C101"
element="C"
mass="12.011"
annotation=""/>
<atomType
name="S102"
element="S"
mass="32.066"
annotation=""/>
<atomType
name="O103"
element="O"
mass="16"
annotation=""/>
<atomType
name="H104"
element="H"
mass="1.008"
annotation=""/>
</atomTypes>
<parameters>
</parameters>
</forcefield>
</ffml>

> <Initial Potential Energy>
42.73262

> <Initial RMS Gradient>
28.95285

> <Minimization Criteria>
STEEPD> Minimization exiting with gradient tolerance ( 3.0000000) satisfied.

> <CHARMm Energy>
-44.13765

> <Potential Energy>
-44.13765

> <RMS Gradient>
0.05552

> <Bond Energy>
3.42351

> <Angle Energy>
18.87933

> <STRBend>
0.27228

> <Dihedral Energy>
6.43624

> <OOPLane>
0.16302

> <Van der Waals Energy>
46.41857

> <Electrostatic Energy>
-119.7306

> <Hydrogen Bond Energy>
0

> <Solvation Free Energy>
0

> <HasGasteigerCharges>
true

> <REMARK99>
REMARK  99  MacroMolecule created from Mol2 file
REMARK  99  CHEMBL4095614
REMARK  99  PROTEIN
REMARK  99  GASTEIGER
REMARK  99
REMARK  99

$$$$
CHEMBL5078180
  SciTegic05292516403D

 61 64  0  0  0  0            999 V2000
   16.2701  -19.8791    2.5508 F   0  0
   17.2220  -20.1379    1.6112 C   0  0
   17.1833  -19.0879    0.7459 F   0  0
   12.0090  -24.8447    0.6671 O   0  0
   12.9733  -23.7593    0.5972 S   0  0
   12.7210  -22.5133    1.2978 O   0  0
   15.9607  -22.2981    1.2859 C   0  0
   15.7058  -23.5236    0.6530 C   0  0
   16.5572  -23.9233   -0.3823 C   0  0
   17.6399  -23.1253   -0.7642 C   0  0
   17.9175  -21.9056   -0.1179 C   0  0
   17.0437  -21.4716    0.9069 C   0  0
   19.1316  -21.1095   -0.5641 C   0  0
   20.3516  -21.8858   -0.4583 N   0  0
   21.5828  -21.3326   -0.7372 C   0  0
   22.7422  -22.2486   -0.5962 C   0  0
   21.7725  -20.1652   -1.0597 O   0  0
   22.7529  -23.5033   -1.2137 C   0  0
   23.8715  -24.3410   -1.1229 C   0  0
   23.8591  -21.7960    0.1181 C   0  0
   24.9885  -22.6316    0.2335 C   0  0
   24.9790  -23.8840   -0.3881 C   0  0
   26.2094  -24.4652   -0.1353 N   0  0
   26.9847  -23.6212    0.6206 C   0  0
   26.2497  -22.4861    0.8728 C   0  0
   26.6641  -25.7552   -0.6388 C   0  0
   14.5640  -24.4083    1.0945 C   0  0
   13.1487  -23.3976   -1.1799 C   0  0
   18.4174  -20.0589    2.2593 F   0  0
   26.1107  -26.9575    0.1443 C   0  0
   26.4565  -28.2543   -0.5898 C   0  0
   26.6546  -27.0107    1.5735 C   0  0
   13.5177  -21.9796   -1.5227 C   0  0
   12.1016  -22.4522   -1.7084 C   0  0
   15.3004  -21.9682    2.0916 H   0  0
   16.3964  -24.8663   -0.9019 H   0  0
   18.2795  -23.4654   -1.5786 H   0  0
   19.0054  -20.8094   -1.6113 H   0  0
   19.2713  -20.1941    0.0159 H   0  0
   20.3076  -22.8264   -0.0893 H   0  0
   21.8969  -23.8287   -1.8004 H   0  0
   23.8999  -25.3013   -1.6289 H   0  0
   23.8685  -20.8050    0.5666 H   0  0
   27.9907  -23.8952    0.9152 H   0  0
   26.5786  -21.6296    1.4459 H   0  0
   26.3614  -25.8025   -1.6919 H   0  0
   27.7610  -25.7503   -0.6240 H   0  0
   14.6527  -25.4097    0.6608 H   0  0
   14.5556  -24.5134    2.1843 H   0  0
   13.4794  -24.2055   -1.8156 H   0  0
   25.0176  -26.8845    0.2016 H   0  0
   26.0468  -29.1219   -0.0619 H   0  0
   27.5406  -28.3877   -0.6724 H   0  0
   26.0381  -28.2513   -1.6018 H   0  0
   26.2838  -27.8989    2.0964 H   0  0
   26.3374  -26.1374    2.1516 H   0  0
   27.7492  -27.0470    1.5812 H   0  0
   13.7067  -21.2621   -0.7320 H   0  0
   14.1197  -21.8150   -2.4093 H   0  0
   11.7481  -22.6015   -2.7216 H   0  0
   11.3471  -22.0634   -1.0324 H   0  0
  2  1  1  0
  2 29  1  0
  3  2  1  0
  5  4  2  0
  5 28  1  0
  6  5  2  0
  7  8  2  0
  7 35  1  0
  8  9  1  0
  8 27  1  0
  9 10  2  0
  9 36  1  0
 10 11  1  0
 10 37  1  0
 11 12  2  0
 11 13  1  0
 12  2  1  0
 12  7  1  0
 13 14  1  0
 13 38  1  0
 13 39  1  0
 14 15  1  0
 14 40  1  0
 15 16  1  0
 15 17  2  0
 16 18  2  0
 18 19  1  0
 18 41  1  0
 19 22  2  0
 19 42  1  0
 20 16  1  0
 20 43  1  0
 21 20  2  0
 21 22  1  0
 22 23  1  0
 23 24  1  0
 23 26  1  0
 24 25  2  0
 24 44  1  0
 25 21  1  0
 25 45  1  0
 26 30  1  0
 26 46  1  0
 26 47  1  0
 27  5  1  0
 27 48  1  0
 27 49  1  0
 28 34  1  0
 28 50  1  0
 30 31  1  0
 30 32  1  0
 30 51  1  0
 31 52  1  0
 31 53  1  0
 31 54  1  0
 32 55  1  0
 32 56  1  0
 32 57  1  0
 33 28  1  0
 33 58  1  0
 33 59  1  0
 34 33  1  0
 34 60  1  0
 34 61  1  0
M  END
> <Name>
CHEMBL5078180

> <Clean Energy>
79.2006

> <chembl_id>
CHEMBL5078180

> <chembl_pref_name>
None

> <efficacy>
1.918328585

> <Forcefield>
MMFF

> <ForcefieldBase>
MMFF

> <ForcefieldFFML>
<?xml version="1.0" encoding="UTF-8"?>
<!DOCTYPE ffml SYSTEM "Ffml.dtd">
<ffml version="1.0">
<forcefield name="MMFF" derivedFrom="MMFF" base="MMFF">
<atomTypes>
<atomType
name="F100"
element="F"
mass="18.998"
annotation=""/>
<atomType
name="C101"
element="C"
mass="12.011"
annotation=""/>
<atomType
name="O102"
element="O"
mass="16"
annotation=""/>
<atomType
name="S103"
element="S"
mass="32.066"
annotation=""/>
<atomType
name="N104"
element="N"
mass="14.007"
annotation=""/>
<atomType
name="H105"
element="H"
mass="1.008"
annotation=""/>
</atomTypes>
<parameters>
</parameters>
</forcefield>
</ffml>

> <Initial Potential Energy>
188.77249

> <Initial RMS Gradient>
27.26654

> <Minimization Criteria>
STEEPD> Minimization exiting with gradient tolerance ( 3.0000000) satisfied.

> <CHARMm Energy>
101.67821

> <Potential Energy>
101.67821

> <RMS Gradient>
0.07294

> <Bond Energy>
6.57093

> <Angle Energy>
8.65265

> <STRBend>
0.48075

> <Dihedral Energy>
7.34107

> <OOPLane>
0.06377

> <Van der Waals Energy>
45.40825

> <Electrostatic Energy>
33.16079

> <Hydrogen Bond Energy>
0

> <Solvation Free Energy>
0

> <HasGasteigerCharges>
true

> <REMARK99>
REMARK  99  MacroMolecule created from Mol2 file
REMARK  99  CHEMBL5078180
REMARK  99  PROTEIN
REMARK  99  GASTEIGER
REMARK  99
REMARK  99

$$$$
CHEMBL3263237
  SciTegic05292516403D

 48 50  0  0  0  0            999 V2000
   32.4473  -16.0000   -0.0280 C   0  0
   32.0515  -17.3173    0.1445 C   0  0
   33.0100  -18.3351    0.1660 C   0  0
   34.3829  -18.0628    0.0293 C   0  0
   34.7840  -16.7093   -0.1092 C   0  0
   33.8011  -15.6967   -0.1636 C   0  0
   36.2273  -16.3291   -0.2881 C   0  0
   36.5724  -15.0201   -0.0033 N   0  0
   37.0459  -17.1585   -0.6712 O   0  0
   37.8672  -14.4540   -0.3326 C   0  0
   38.8006  -14.4217    0.8712 C   0  0
   40.0396  -13.5593    0.6032 C   0  0
   40.9669  -13.5582    1.7953 C   0  0
   41.8717  -12.5501    1.7735 O   0  0
   40.9316  -14.3840    2.6944 O   0  0
   35.3514  -19.1104    0.0380 N   0  0
   35.1091  -20.4748   -0.0177 C   0  0
   36.2890  -21.3840    0.0821 C   0  0
   34.0074  -21.0108   -0.1031 O   0  0
   38.3437  -23.2400    0.4729 C   0  0
   37.1429  -23.3935    1.1573 C   0  0
   36.1194  -22.4745    0.9601 C   0  0
   37.4925  -21.2386   -0.6643 C   0  0
   38.5336  -22.1782   -0.4285 C   0  0
   39.7565  -22.0633   -1.1108 C   0  0
   39.9689  -21.0545   -2.0473 C   0  0
   38.9508  -20.1552   -2.3266 C   0  0
   37.7278  -20.2537   -1.6566 C   0  0
   31.7029  -15.2083   -0.0679 H   0  0
   30.9960  -17.5630    0.2528 H   0  0
   32.6418  -19.3467    0.3040 H   0  0
   34.0591  -14.6574   -0.3475 H   0  0
   35.9167  -14.4221    0.4791 H   0  0
   38.3202  -15.0182   -1.1548 H   0  0
   37.6725  -13.4365   -0.6890 H   0  0
   38.2682  -14.0278    1.7468 H   0  0
   39.0950  -15.4466    1.1300 H   0  0
   40.5936  -13.9387   -0.2618 H   0  0
   39.7244  -12.5291    0.4029 H   0  0
   41.8144  -11.9267    1.0235 H   0  0
   36.3238  -18.7981    0.0276 H   0  0
   39.1302  -23.9778    0.6349 H   0  0
   37.0032  -24.2341    1.8341 H   0  0
   35.1754  -22.6141    1.4874 H   0  0
   40.5606  -22.7731   -0.9227 H   0  0
   40.9222  -20.9848   -2.5654 H   0  0
   39.0990  -19.3727   -3.0665 H   0  0
   36.9529  -19.5446   -1.9400 H   0  0
  1  2  2  0
  1 29  1  0
  2  3  1  0
  2 30  1  0
  3  4  2  0
  3 31  1  0
  4  5  1  0
  4 16  1  0
  5  6  2  0
  5  7  1  0
  6  1  1  0
  6 32  1  0
  7  8  1  0
  7  9  2  0
  8 10  1  0
  8 33  1  0
 10 11  1  0
 10 34  1  0
 10 35  1  0
 11 12  1  0
 11 36  1  0
 11 37  1  0
 12 13  1  0
 12 38  1  0
 12 39  1  0
 13 14  1  0
 13 15  2  0
 14 40  1  0
 16 17  1  0
 16 41  1  0
 17 18  1  0
 17 19  2  0
 18 22  2  0
 20 24  1  0
 20 42  1  0
 21 20  2  0
 21 22  1  0
 21 43  1  0
 22 44  1  0
 23 18  1  0
 23 24  1  0
 24 25  2  0
 25 26  1  0
 25 45  1  0
 26 27  2  0
 26 46  1  0
 27 28  1  0
 27 47  1  0
 28 23  2  0
 28 48  1  0
M  END
> <Name>
CHEMBL3263237

> <Clean Energy>
5.241

> <chembl_id>
CHEMBL3263237

> <chembl_pref_name>
None

> <efficacy>
3.770180437

> <Forcefield>
MMFF

> <ForcefieldBase>
MMFF

> <ForcefieldFFML>
<?xml version="1.0" encoding="UTF-8"?>
<!DOCTYPE ffml SYSTEM "Ffml.dtd">
<ffml version="1.0">
<forcefield name="MMFF" derivedFrom="MMFF" base="MMFF">
<atomTypes>
<atomType
name="C100"
element="C"
mass="12.011"
annotation=""/>
<atomType
name="N101"
element="N"
mass="14.007"
annotation=""/>
<atomType
name="O102"
element="O"
mass="16"
annotation=""/>
<atomType
name="H103"
element="H"
mass="1.008"
annotation=""/>
</atomTypes>
<parameters>
</parameters>
</forcefield>
</ffml>

> <Initial Potential Energy>
201.75531

> <Initial RMS Gradient>
53.86114

> <Minimization Criteria>
STEEPD> Minimization exiting with gradient tolerance ( 3.0000000) satisfied.

> <CHARMm Energy>
25.44707

> <Potential Energy>
25.44707

> <RMS Gradient>
0.1413

> <Bond Energy>
8.62571

> <Angle Energy>
10.0377

> <STRBend>
1.32651

> <Dihedral Energy>
-0.0557

> <OOPLane>
0.08787

> <Van der Waals Energy>
61.68736

> <Electrostatic Energy>
-56.26238

> <Hydrogen Bond Energy>
0

> <Solvation Free Energy>
0

> <HasGasteigerCharges>
true

> <REMARK99>
REMARK  99  MacroMolecule created from Mol2 file
REMARK  99  CHEMBL3263237
REMARK  99  PROTEIN
REMARK  99  GASTEIGER
REMARK  99
REMARK  99

$$$$
CHEMBL3335653
  SciTegic05292516403D

 58 60  0  0  0  0            999 V2000
    5.9595  -11.9101    0.3594 C   0  0
    5.8330  -13.1827    0.9086 C   0  0
    6.9223  -14.0667    0.9151 C   0  0
    8.1626  -13.6985    0.3705 C   0  0
    8.2831  -12.3944   -0.1500 C   0  0
    7.1878  -11.5116   -0.1666 C   0  0
    9.5415  -11.9114   -0.7659 C   0  0
   10.5570  -11.6202    0.1331 N   0  0
    9.5714  -11.8160   -1.9851 O   0  0
   11.8423  -11.1038   -0.1773 C   0  0
    9.2569  -14.6022    0.2663 N   0  0
    9.3203  -15.8998    0.7477 C   0  0
   10.5371  -16.6797    0.3759 C   0  0
    8.4620  -16.4693    1.4138 O   0  0
   10.4162  -18.0663    0.2130 C   0  0
   11.5321  -18.8390   -0.1296 C   0  0
   12.7994  -18.2505   -0.3121 C   0  0
   12.9002  -16.8589   -0.1319 C   0  0
   11.7873  -16.0802    0.2117 C   0  0
   14.0137  -19.1218   -0.6811 C   0  0
   13.7415  -19.8509   -2.0149 C   0  0
   15.3288  -18.3289   -0.8559 C   0  0
   14.2554  -20.1679    0.4286 C   0  0
   12.7013  -10.7703    0.8865 C   0  0
   13.9773  -10.2060    0.6581 C   0  0
   14.3759   -9.9627   -0.6617 C   0  0
   13.5434  -10.3140   -1.7217 C   0  0
   12.2886  -10.8827   -1.4813 C   0  0
   14.8426   -9.7636    1.8237 C   0  0
   16.3411   -9.9135    1.6404 C   0  0
   16.7398  -11.1442    1.2357 O   0  0
   17.1498   -9.0240    1.8789 O   0  0
    5.0962  -11.2451    0.3308 H   0  0
    4.8703  -13.5067    1.3091 H   0  0
    6.7464  -15.0586    1.3229 H   0  0
    7.2941  -10.5208   -0.6057 H   0  0
   10.3372  -11.7291    1.1170 H   0  0
   10.0354  -14.2845   -0.2993 H   0  0
    9.4521  -18.5572    0.3498 H   0  0
   11.3945  -19.9151   -0.2476 H   0  0
   13.8509  -16.3444   -0.2464 H   0  0
   11.9322  -15.0158    0.3702 H   0  0
   14.6049  -20.4542   -2.3192 H   0  0
   13.5338  -19.1359   -2.8198 H   0  0
   12.8845  -20.5301   -1.9491 H   0  0
   16.1588  -18.9944   -1.1223 H   0  0
   15.6151  -17.8130    0.0680 H   0  0
   15.2464  -17.5818   -1.6538 H   0  0
   15.1349  -20.7837    0.2067 H   0  0
   13.4073  -20.8514    0.5457 H   0  0
   14.4235  -19.6831    1.3976 H   0  0
   12.3663  -10.9169    1.9119 H   0  0
   15.3286   -9.4797   -0.8849 H   0  0
   13.8598  -10.1217   -2.7454 H   0  0
   11.6758  -11.1200   -2.3456 H   0  0
   14.6286   -8.7056    2.0173 H   0  0
   14.5778  -10.3244    2.7280 H   0  0
   16.0050  -11.7584    1.0496 H   0  0
  1  2  2  0
  1 33  1  0
  2  3  1  0
  2 34  1  0
  3  4  2  0
  3 35  1  0
  4  5  1  0
  4 11  1  0
  5  6  2  0
  5  7  1  0
  6  1  1  0
  6 36  1  0
  7  8  1  0
  7  9  2  0
  8 10  1  0
  8 37  1  0
 10 24  2  0
 11 12  1  0
 11 38  1  0
 12 13  1  0
 12 14  2  0
 13 15  2  0
 15 16  1  0
 15 39  1  0
 16 17  2  0
 16 40  1  0
 17 18  1  0
 17 20  1  0
 18 19  2  0
 18 41  1  0
 19 13  1  0
 19 42  1  0
 20 21  1  0
 20 22  1  0
 20 23  1  0
 21 43  1  0
 21 44  1  0
 21 45  1  0
 22 46  1  0
 22 47  1  0
 22 48  1  0
 23 49  1  0
 23 50  1  0
 23 51  1  0
 24 25  1  0
 24 52  1  0
 25 26  2  0
 25 29  1  0
 26 27  1  0
 26 53  1  0
 27 28  2  0
 27 54  1  0
 28 10  1  0
 28 55  1  0
 29 30  1  0
 29 56  1  0
 29 57  1  0
 30 31  1  0
 30 32  2  0
 31 58  1  0
M  END
> <Name>
CHEMBL3335653

> <Clean Energy>
15.205

> <chembl_id>
CHEMBL3335653

> <chembl_pref_name>
None

> <efficacy>
1.149097816

> <Forcefield>
MMFF

> <ForcefieldBase>
MMFF

> <ForcefieldFFML>
<?xml version="1.0" encoding="UTF-8"?>
<!DOCTYPE ffml SYSTEM "Ffml.dtd">
<ffml version="1.0">
<forcefield name="MMFF" derivedFrom="MMFF" base="MMFF">
<atomTypes>
<atomType
name="C100"
element="C"
mass="12.011"
annotation=""/>
<atomType
name="N101"
element="N"
mass="14.007"
annotation=""/>
<atomType
name="O102"
element="O"
mass="16"
annotation=""/>
<atomType
name="H103"
element="H"
mass="1.008"
annotation=""/>
</atomTypes>
<parameters>
</parameters>
</forcefield>
</ffml>

> <Initial Potential Energy>
266.71832

> <Initial RMS Gradient>
73.4902

> <Minimization Criteria>
CONJUG> Minimization exiting with gradient tolerance ( 0.0100000) satisfied.

> <CHARMm Energy>
70.91538

> <Potential Energy>
70.91538

> <RMS Gradient>
0.00963

> <Bond Energy>
9.61789

> <Angle Energy>
11.81797

> <STRBend>
2.10416

> <Dihedral Energy>
12.51005

> <OOPLane>
0.21942

> <Van der Waals Energy>
71.49419

> <Electrostatic Energy>
-36.8483

> <Hydrogen Bond Energy>
0

> <Solvation Free Energy>
0

> <HasGasteigerCharges>
true

> <REMARK99>
REMARK  99  MacroMolecule created from Mol2 file
REMARK  99  CHEMBL3335653
REMARK  99  PROTEIN
REMARK  99  GASTEIGER
REMARK  99
REMARK  99

$$$$
CHEMBL3764948
  SciTegic05292516403D

 50 51  0  0  0  0            999 V2000
   -0.6537   -2.0581   -2.6519 F   0  0
    0.0159   -2.2486   -1.4797 C   0  0
    1.3383   -2.3399   -1.8077 F   0  0
    0.7145   -0.2737   -0.0868 C   0  0
    0.5050    0.7127    0.8748 C   0  0
   -0.7444    0.8381    1.4656 C   0  0
   -1.7837   -0.0119    1.0828 C   0  0
   -1.5995   -1.0015    0.0943 C   0  0
   -0.3096   -1.1603   -0.4714 C   0  0
   -2.7611   -1.9108   -0.2708 C   0  0
   -4.0310   -1.2025   -0.3030 N   0  0
   -0.3396   -3.4906   -1.0442 F   0  0
   -5.1374   -1.6525    0.3869 C   0  0
   -6.3784   -0.8253    0.3026 C   0  0
   -5.1299   -2.6627    1.0823 O   0  0
   -7.2813   -0.8804    1.3710 C   0  0
   -8.4538   -0.1158    1.3550 C   0  0
   -8.7510    0.7247    0.2712 C   0  0
   -7.8683    0.7333   -0.8193 C   0  0
   -6.6875   -0.0268   -0.8024 C   0  0
  -10.0296    1.5399    0.3120 C   0  0
  -10.0480    2.8929   -0.4307 C   0  0  2  0  0  0
   -8.8213    3.7348   -0.1316 C   0  0
   -8.5484    3.9338    1.1737 O   0  0
   -8.0886    4.1734   -1.0095 O   0  0
  -11.3397    3.6696   -0.1228 C   0  0
  -11.5193    4.8975   -1.0208 C   0  0
  -12.8351    5.6052   -0.7360 C   0  0
    1.7043   -0.3592   -0.5314 H   0  0
    1.3298    1.3613    1.1686 H   0  0
   -0.9143    1.5930    2.2294 H   0  0
   -2.7495    0.0981    1.5749 H   0  0
   -2.6364   -2.3154   -1.2789 H   0  0
   -2.7939   -2.7479    0.4341 H   0  0
   -4.0667   -0.3334   -0.8163 H   0  0
   -7.0713   -1.5196    2.2272 H   0  0
   -9.1320   -0.1861    2.2038 H   0  0
   -8.0729    1.3365   -1.7022 H   0  0
   -6.0393    0.0039   -1.6732 H   0  0
  -10.8317    0.9071   -0.0905 H   0  0
  -10.2841    1.7211    1.3651 H   0  0
  -10.0246    2.6796   -1.5082 H   0  0
   -9.2457    3.6277    1.7845 H   0  0
  -12.1999    3.0025   -0.2625 H   0  0
  -11.3516    3.9860    0.9277 H   0  0
  -10.6975    5.6054   -0.8664 H   0  0
  -11.4955    4.5950   -2.0741 H   0  0
  -12.9437    6.4791   -1.3860 H   0  0
  -12.8797    5.9468    0.3031 H   0  0
  -13.6856    4.9401   -0.9164 H   0  0
  2  1  1  0
  2 12  1  0
  3  2  1  0
  4  5  2  0
  4 29  1  0
  5  6  1  0
  5 30  1  0
  6  7  2  0
  6 31  1  0
  7  8  1  0
  7 32  1  0
  8  9  2  0
  8 10  1  0
  9  2  1  0
  9  4  1  0
 10 11  1  0
 10 33  1  0
 10 34  1  0
 11 13  1  0
 11 35  1  0
 13 14  1  0
 13 15  2  0
 14 16  2  0
 16 17  1  0
 16 36  1  0
 17 18  2  0
 17 37  1  0
 18 19  1  0
 18 21  1  0
 19 20  2  0
 19 38  1  0
 20 14  1  0
 20 39  1  0
 21 22  1  0
 21 40  1  0
 21 41  1  0
 22 23  1  0
 22 26  1  0
 22 42  1  0
 23 24  1  0
 23 25  2  0
 24 43  1  0
 26 27  1  0
 26 44  1  0
 26 45  1  0
 27 28  1  0
 27 46  1  0
 27 47  1  0
 28 48  1  0
 28 49  1  0
 28 50  1  0
M  END
> <Name>
CHEMBL3764948

> <Clean Energy>
25.635799

> <chembl_id>
CHEMBL3764948

> <chembl_pref_name>
None

> <efficacy>
1.709401709

> <Forcefield>
MMFF

> <ForcefieldBase>
MMFF

> <ForcefieldFFML>
<?xml version="1.0" encoding="UTF-8"?>
<!DOCTYPE ffml SYSTEM "Ffml.dtd">
<ffml version="1.0">
<forcefield name="MMFF" derivedFrom="MMFF" base="MMFF">
<atomTypes>
<atomType
name="F100"
element="F"
mass="18.998"
annotation=""/>
<atomType
name="C101"
element="C"
mass="12.011"
annotation=""/>
<atomType
name="N102"
element="N"
mass="14.007"
annotation=""/>
<atomType
name="O103"
element="O"
mass="16"
annotation=""/>
<atomType
name="H104"
element="H"
mass="1.008"
annotation=""/>
</atomTypes>
<parameters>
</parameters>
</forcefield>
</ffml>

> <Initial Potential Energy>
83.41845

> <Initial RMS Gradient>
25.5961

> <Minimization Criteria>
CONJUG> Minimization exiting with gradient tolerance ( 0.0100000) satisfied.

> <CHARMm Energy>
23.37367

> <Potential Energy>
23.37367

> <RMS Gradient>
0.00918

> <Bond Energy>
6.62065

> <Angle Energy>
8.36756

> <STRBend>
0.79792

> <Dihedral Energy>
-5.7985

> <OOPLane>
0.11758

> <Van der Waals Energy>
47.28881

> <Electrostatic Energy>
-34.02035

> <Hydrogen Bond Energy>
0

> <Solvation Free Energy>
0

> <HasGasteigerCharges>
true

> <REMARK99>
REMARK  99  MacroMolecule created from Mol2 file
REMARK  99  CHEMBL3764948
REMARK  99  PROTEIN
REMARK  99  GASTEIGER
REMARK  99
REMARK  99

$$$$
CHEMBL3597406
  SciTegic05292516403D

 73 77  0  0  0  0            999 V2000
   -0.4115    2.3875    0.9652 C   0  0
   -1.0499    1.1584    1.0446 C   0  0
   -0.4968    0.0288    0.4379 C   0  0
    0.8188    2.5214    0.3161 C   0  0
    1.3906    1.3990   -0.3202 C   0  0
    0.7248    0.1692   -0.2443 C   0  0
    1.4980   -0.7480   -0.9278 N   0  0
    2.5934   -0.1227   -1.4710 C   0  0
    2.5798    1.2050   -1.0929 C   0  0
    3.6010    2.2415   -1.4511 C   0  0
    5.0070    1.9406   -0.9761 C   0  0
    5.1122    1.2380    0.1752 O   0  0
    6.0044    2.3515   -1.5595 O   0  0
   -1.0133    3.4446    1.5907 O   0  0
   -1.3416    4.5039    0.6850 C   0  0
   -2.8360    4.7688    0.7879 C   0  0
   -3.2379    5.9189   -0.1187 C   0  0
   -4.6361    6.1679    0.0573 O   0  0
   -4.9878    7.4756   -0.1340 C   0  0
   -5.9834    7.9664    0.7054 C   0  0
   -6.3618    9.3051    0.6225 C   0  0
   -5.7548   10.1535   -0.3051 C   0  0
   -4.8025    9.6421   -1.1875 C   0  0
   -4.4177    8.3016   -1.1031 C   0  0
   -6.1798   11.4501   -0.2561 O   0  0
   -5.3795   12.4095   -0.9411 C   0  0
   -5.7778   13.7785   -0.4536 C   0  0
   -5.1788   14.3200    0.6923 C   0  0
   -5.5530   15.5824    1.1586 C   0  0
   -6.5334   16.3224    0.4890 C   0  0
   -7.1553   15.7658   -0.6345 C   0  0
   -6.7795   14.5062   -1.1050 C   0  0
   -6.9616   17.6633    1.0082 C   0  0
    1.2049   -2.1678   -1.0979 C   0  0
    2.0241   -3.0143   -0.1558 C   0  0
    3.1801   -3.6671   -0.6078 C   0  0
    3.9435   -4.4415    0.2672 C   0  0
    3.5623   -4.5712    1.6009 C   0  0
    2.4193   -3.9227    2.0638 C   0  0
    1.6547   -3.1467    1.1916 C   0  0
   -1.9980    1.0830    1.5722 H   0  0
   -1.0170   -0.9209    0.4968 H   0  0
    1.3232    3.4811    0.2968 H   0  0
    3.3048   -0.6785   -2.0696 H   0  0
    3.6295    2.3291   -2.5441 H   0  0
    3.3252    3.2199   -1.0445 H   0  0
    4.2486    0.9590    0.5436 H   0  0
   -0.7726    5.3886    0.9919 H   0  0
   -1.0798    4.2783   -0.3576 H   0  0
   -3.4039    3.8657    0.5310 H   0  0
   -3.1110    4.9892    1.8273 H   0  0
   -2.6348    6.7972    0.1478 H   0  0
   -3.0538    5.6591   -1.1677 H   0  0
   -6.4428    7.3133    1.4424 H   0  0
   -7.1192    9.6926    1.2983 H   0  0
   -4.3408   10.2552   -1.9535 H   0  0
   -3.6807    7.9272   -1.8061 H   0  0
   -4.3103   12.2632   -0.7382 H   0  0
   -5.5452   12.3331   -2.0229 H   0  0
   -4.4238   13.7512    1.2326 H   0  0
   -5.0793   15.9842    2.0516 H   0  0
   -7.9432   16.3092   -1.1505 H   0  0
   -7.2832   14.0958   -1.9773 H   0  0
   -7.7713   17.5432    1.7344 H   0  0
   -7.3102   18.3045    0.1918 H   0  0
   -6.1255   18.1797    1.4914 H   0  0
    0.1344   -2.3365   -0.9427 H   0  0
    1.4147   -2.4205   -2.1444 H   0  0
    3.4990   -3.5806   -1.6445 H   0  0
    4.8378   -4.9453   -0.0917 H   0  0
    4.1577   -5.1785    2.2791 H   0  0
    2.1259   -4.0228    3.1058 H   0  0
    0.7697   -2.6408    1.5732 H   0  0
  1  2  2  0
  1 14  1  0
  2  3  1  0
  2 41  1  0
  3  6  2  0
  3 42  1  0
  4  1  1  0
  4 43  1  0
  5  4  2  0
  5  6  1  0
  6  7  1  0
  7  8  1  0
  7 34  1  0
  8  9  2  0
  8 44  1  0
  9  5  1  0
  9 10  1  0
 10 11  1  0
 10 45  1  0
 10 46  1  0
 11 12  1  0
 11 13  2  0
 12 47  1  0
 14 15  1  0
 15 16  1  0
 15 48  1  0
 15 49  1  0
 16 17  1  0
 16 50  1  0
 16 51  1  0
 17 18  1  0
 17 52  1  0
 17 53  1  0
 18 19  1  0
 19 20  2  0
 20 21  1  0
 20 54  1  0
 21 22  2  0
 21 55  1  0
 22 23  1  0
 22 25  1  0
 23 24  2  0
 23 56  1  0
 24 19  1  0
 24 57  1  0
 25 26  1  0
 26 27  1  0
 26 58  1  0
 26 59  1  0
 27 28  2  0
 28 29  1  0
 28 60  1  0
 29 30  2  0
 29 61  1  0
 30 31  1  0
 30 33  1  0
 31 32  2  0
 31 62  1  0
 32 27  1  0
 32 63  1  0
 33 64  1  0
 33 65  1  0
 33 66  1  0
 34 35  1  0
 34 67  1  0
 34 68  1  0
 35 36  2  0
 36 37  1  0
 36 69  1  0
 37 38  2  0
 37 70  1  0
 38 39  1  0
 38 71  1  0
 39 40  2  0
 39 72  1  0
 40 35  1  0
 40 73  1  0
M  END
> <Name>
CHEMBL3597406

> <Clean Energy>
31.437099

> <chembl_id>
CHEMBL3597406

> <chembl_pref_name>
None

> <efficacy>
0.926

> <Forcefield>
MMFF

> <ForcefieldBase>
MMFF

> <ForcefieldFFML>
<?xml version="1.0" encoding="UTF-8"?>
<!DOCTYPE ffml SYSTEM "Ffml.dtd">
<ffml version="1.0">
<forcefield name="MMFF" derivedFrom="MMFF" base="MMFF">
<atomTypes>
<atomType
name="C100"
element="C"
mass="12.011"
annotation=""/>
<atomType
name="N101"
element="N"
mass="14.007"
annotation=""/>
<atomType
name="O102"
element="O"
mass="16"
annotation=""/>
<atomType
name="H103"
element="H"
mass="1.008"
annotation=""/>
</atomTypes>
<parameters>
</parameters>
</forcefield>
</ffml>

> <Initial Potential Energy>
255.07014

> <Initial RMS Gradient>
33.97541

> <Minimization Criteria>
STEEPD> Minimization exiting with gradient tolerance ( 3.0000000) satisfied.

> <CHARMm Energy>
98.75339

> <Potential Energy>
98.75339

> <RMS Gradient>
0.05112

> <Bond Energy>
6.95187

> <Angle Energy>
17.82669

> <STRBend>
-0.48306

> <Dihedral Energy>
7.56812

> <OOPLane>
0.12008

> <Van der Waals Energy>
81.63446

> <Electrostatic Energy>
-14.86477

> <Hydrogen Bond Energy>
0

> <Solvation Free Energy>
0

> <HasGasteigerCharges>
true

> <REMARK99>
REMARK  99  MacroMolecule created from Mol2 file
REMARK  99  CHEMBL3597406
REMARK  99  PROTEIN
REMARK  99  GASTEIGER
REMARK  99
REMARK  99

$$$$
CHEMBL3597420
  SciTegic05292516403D

 67 71  0  0  0  0            999 V2000
   -0.7311    1.4088    1.0222 C   0  0
   -1.0978    0.0692    1.0571 C   0  0
   -0.3692   -0.8898    0.3560 C   0  0
    0.4144    1.8221    0.3308 C   0  0
    1.1683    0.8705   -0.3931 C   0  0
    0.7552   -0.4667   -0.3697 C   0  0
    1.6435   -1.1773   -1.1484 N   0  0
    2.5789   -0.3295   -1.6834 C   0  0
    2.3423    0.9476   -1.2132 C   0  0
    3.1511    2.1701   -1.5337 C   0  0
    4.6451    1.9436   -1.3936 C   0  0
    5.0243    1.4008   -0.2094 O   0  0
    5.4696    2.2362   -2.2514 O   0  0
   -1.5448    2.2575    1.7225 O   0  0
   -1.8121    3.4947    1.0587 C   0  0
   -3.2653    3.8673    1.3183 C   0  0
   -3.5968    5.2022    0.6719 C   0  0
   -4.9932    5.4607    0.8310 O   0  0
   -5.4475    6.6579    0.3381 C   0  0
   -6.8282    6.8536    0.4418 C   0  0
   -7.4223    8.0264   -0.0333 C   0  0
   -6.6324    9.0198   -0.6077 C   0  0
   -5.2517    8.8402   -0.6875 C   0  0
   -4.6566    7.6547   -0.2374 C   0  0
   -4.5173    9.8479   -1.2778 O   0  0
   -3.4199   10.2776   -0.5679 C   0  0
   -2.1642   10.1552   -1.1625 C   0  0
   -1.0285   10.5811   -0.4712 C   0  0
   -1.1584   11.1431    0.7987 C   0  0
   -2.4160   11.2867    1.3837 C   0  0
   -3.5528   10.8563    0.6966 C   0  0
    1.5939   -2.6104   -1.4098 C   0  0
    3.7833   -3.8013   -1.0003 C   0  0
    2.5431   -3.3644   -0.5125 C   0  0
    2.2129   -3.6258    0.8262 C   0  0
    3.0975   -4.3209    1.6525 C   0  0
    4.3221   -4.7584    1.1527 C   0  0
    4.6661   -4.4955   -0.1715 C   0  0
    0.2467   11.6413    1.6570 Cl  0  0
   -1.9782   -0.2317    1.6202 H   0  0
   -0.6851   -1.9273    0.3752 H   0  0
    0.7278    2.8595    0.3434 H   0  0
    3.3526   -0.7082   -2.3406 H   0  0
    2.9459    2.4667   -2.5690 H   0  0
    2.8815    3.0126   -0.8886 H   0  0
    4.2584    1.1778    0.3595 H   0  0
   -1.1389    4.2580    1.4652 H   0  0
   -1.6578    3.4253   -0.0262 H   0  0
   -3.9297    3.0824    0.9352 H   0  0
   -3.4662    3.9061    2.3962 H   0  0
   -3.0079    5.9856    1.1648 H   0  0
   -3.3514    5.1662   -0.3967 H   0  0
   -7.4477    6.0796    0.8892 H   0  0
   -8.4982    8.1596    0.0430 H   0  0
   -7.0882    9.9318   -0.9833 H   0  0
   -3.5839    7.5365   -0.3510 H   0  0
   -2.0600    9.6930   -2.1416 H   0  0
   -0.0463   10.4432   -0.9180 H   0  0
   -2.5184   11.7269    2.3721 H   0  0
   -4.5340   10.9689    1.1496 H   0  0
    0.5669   -2.9667   -1.2793 H   0  0
    1.8441   -2.7588   -2.4674 H   0  0
    4.0748   -3.6032   -2.0297 H   0  0
    1.2660   -3.2837    1.2389 H   0  0
    2.8329   -4.5212    2.6878 H   0  0
    5.0114   -5.3033    1.7941 H   0  0
    5.6248   -4.8318   -0.5591 H   0  0
  1  2  2  0
  1 14  1  0
  2  3  1  0
  2 40  1  0
  3  6  2  0
  3 41  1  0
  4  1  1  0
  4 42  1  0
  5  4  2  0
  5  6  1  0
  6  7  1  0
  7  8  1  0
  7 32  1  0
  8  9  2  0
  8 43  1  0
  9  5  1  0
  9 10  1  0
 10 11  1  0
 10 44  1  0
 10 45  1  0
 11 12  1  0
 11 13  2  0
 12 46  1  0
 14 15  1  0
 15 16  1  0
 15 47  1  0
 15 48  1  0
 16 17  1  0
 16 49  1  0
 16 50  1  0
 17 18  1  0
 17 51  1  0
 17 52  1  0
 18 19  1  0
 19 20  2  0
 20 21  1  0
 20 53  1  0
 21 22  2  0
 21 54  1  0
 22 23  1  0
 22 55  1  0
 23 24  2  0
 23 25  1  0
 24 19  1  0
 24 56  1  0
 25 26  1  0
 26 27  2  0
 27 28  1  0
 27 57  1  0
 28 29  2  0
 28 58  1  0
 29 30  1  0
 29 39  1  0
 30 31  2  0
 30 59  1  0
 31 26  1  0
 31 60  1  0
 32 61  1  0
 32 62  1  0
 33 34  2  0
 33 63  1  0
 34 32  1  0
 34 35  1  0
 35 36  2  0
 35 64  1  0
 36 37  1  0
 36 65  1  0
 37 38  2  0
 37 66  1  0
 38 33  1  0
 38 67  1  0
M  END
> <Name>
CHEMBL3597420

> <Clean Energy>
38.772099

> <chembl_id>
CHEMBL3597420

> <chembl_pref_name>
None

> <efficacy>
0.998

> <Forcefield>
MMFF

> <ForcefieldBase>
MMFF

> <ForcefieldFFML>
<?xml version="1.0" encoding="UTF-8"?>
<!DOCTYPE ffml SYSTEM "Ffml.dtd">
<ffml version="1.0">
<forcefield name="MMFF" derivedFrom="MMFF" base="MMFF">
<atomTypes>
<atomType
name="C100"
element="C"
mass="12.011"
annotation=""/>
<atomType
name="N101"
element="N"
mass="14.007"
annotation=""/>
<atomType
name="O102"
element="O"
mass="16"
annotation=""/>
<atomType
name="Cl103"
element="Cl"
mass="35.453"
annotation=""/>
<atomType
name="H104"
element="H"
mass="1.008"
annotation=""/>
</atomTypes>
<parameters>
</parameters>
</forcefield>
</ffml>

> <Initial Potential Energy>
320.86928

> <Initial RMS Gradient>
49.4322

> <Minimization Criteria>
CONJUG> Minimization exiting with gradient tolerance ( 0.0100000) satisfied.

> <CHARMm Energy>
86.12141

> <Potential Energy>
86.12141

> <RMS Gradient>
0.00924

> <Bond Energy>
6.51507

> <Angle Energy>
16.14745

> <STRBend>
0.05424

> <Dihedral Energy>
9.9208

> <OOPLane>
0.05999

> <Van der Waals Energy>
77.72246

> <Electrostatic Energy>
-24.29861

> <Hydrogen Bond Energy>
0

> <Solvation Free Energy>
0

> <HasGasteigerCharges>
true

> <REMARK99>
REMARK  99  MacroMolecule created from Mol2 file
REMARK  99  CHEMBL3597420
REMARK  99  PROTEIN
REMARK  99  GASTEIGER
REMARK  99
REMARK  99

$$$$
CHEMBL3545280
  SciTegic05292516403D

 62 66  0  0  0  0            999 V2000
   25.8068   -2.3804    1.9640 O   0  0
   25.1583   -3.0605    1.1841 C   0  0
   23.4452   -2.9096    0.9198 S   0  0
   23.4299   -4.1793   -0.3990 C   0  0  2  0  0  0
   22.3698   -5.2652   -0.1726 C   0  0
   20.9289   -4.7878   -0.2074 C   0  0
   20.3865   -4.2087   -1.3601 C   0  0
   19.0536   -3.7804   -1.3791 C   0  0
   18.2288   -3.9327   -0.2607 C   0  0
   18.7582   -4.5176    0.8873 C   0  0
   20.0972   -4.9402    0.9125 C   0  0
   16.9537   -3.4649   -0.4228 O   0  0
   16.0049   -3.7017    0.6253 C   0  0
   14.7009   -3.0472    0.2517 C   0  0
   14.5318   -2.0707   -0.6216 N   0  0
   13.2046   -1.7515   -0.5999 C   0  0
   12.5203   -0.7702   -1.3308 C   0  0
   11.1439   -0.6246   -1.1335 C   0  0
   10.4648   -1.4517   -0.2377 C   0  0
   11.1372   -2.4225    0.5216 C   0  0
   12.5162   -2.5507    0.3060 C   0  0
   13.4895   -3.3638    0.8419 N   0  0
   13.2764   -4.3662    1.8588 C   0  0
    9.1156   -1.2137   -0.0808 O   0  0
    8.2589   -2.2883   -0.1613 C   0  0
    7.1427   -2.2493    0.6698 C   0  0
    6.1852   -3.2760    0.6362 C   0  0
    4.9985   -3.1884    1.5605 C   0  0
    6.3436   -4.3473   -0.2708 C   0  0
    7.4825   -4.3876   -1.1046 C   0  0
    7.7097   -5.5211   -2.0688 C   0  0
    8.4211   -3.3435   -1.0574 C   0  0
    5.4392   -5.4043   -0.2670 N   0  0
   25.6807   -4.0508    0.4217 N   0  0
   24.8419   -4.7497   -0.3970 C   0  0
   25.2334   -5.7074   -1.0547 O   0  0
   23.2836   -3.6693   -1.3572 H   0  0
   22.4742   -6.0399   -0.9448 H   0  0
   22.5684   -5.7848    0.7749 H   0  0
   20.9904   -4.0853   -2.2567 H   0  0
   18.6485   -3.3230   -2.2798 H   0  0
   18.1649   -4.6533    1.7848 H   0  0
   20.4863   -5.3882    1.8250 H   0  0
   15.8633   -4.7814    0.7477 H   0  0
   16.3562   -3.2523    1.5613 H   0  0
   13.0608   -0.1361   -2.0252 H   0  0
   10.6029    0.1371   -1.6871 H   0  0
   10.6080   -3.0368    1.2410 H   0  0
   12.3450   -4.1669    2.3928 H   0  0
   14.1044   -4.3339    2.5713 H   0  0
   13.2298   -5.3419    1.3691 H   0  0
    7.0228   -1.4085    1.3490 H   0  0
    4.0706   -3.1355    0.9820 H   0  0
    5.0445   -2.2947    2.1920 H   0  0
    4.9693   -4.0578    2.2251 H   0  0
    8.6607   -5.4138   -2.6014 H   0  0
    6.9117   -5.5465   -2.8177 H   0  0
    7.7421   -6.4759   -1.5341 H   0  0
    9.2805   -3.3603   -1.7242 H   0  0
    4.5884   -5.3225    0.2715 H   0  0
    5.4072   -6.0532   -1.0418 H   0  0
   26.6614   -4.2842    0.4923 H   0  0
  1  2  2  0
  2  3  1  0
  2 34  1  0
  3  4  1  0
  4  5  1  0
  4 35  1  0
  4 37  1  0
  5  6  1  0
  5 38  1  0
  5 39  1  0
  6  7  2  0
  6 11  1  0
  7  8  1  0
  7 40  1  0
  8  9  2  0
  8 41  1  0
  9 10  1  0
  9 12  1  0
 10 11  2  0
 10 42  1  0
 11 43  1  0
 12 13  1  0
 13 14  1  0
 13 44  1  0
 13 45  1  0
 14 15  2  0
 14 22  1  0
 15 16  1  0
 16 17  2  0
 16 21  1  0
 17 18  1  0
 17 46  1  0
 18 19  2  0
 18 47  1  0
 19 20  1  0
 19 24  1  0
 20 21  2  0
 20 48  1  0
 21 22  1  0
 22 23  1  0
 23 49  1  0
 23 50  1  0
 23 51  1  0
 24 25  1  0
 25 26  2  0
 25 32  1  0
 26 27  1  0
 26 52  1  0
 27 28  1  0
 27 29  2  0
 28 53  1  0
 28 54  1  0
 28 55  1  0
 29 30  1  0
 29 33  1  0
 30 31  1  0
 30 32  2  0
 31 56  1  0
 31 57  1  0
 31 58  1  0
 32 59  1  0
 33 60  1  0
 33 61  1  0
 34 35  1  0
 34 62  1  0
 35 36  2  0
M  END
> <Name>
CHEMBL3545280

> <Clean Energy>
54.254501

> <chembl_id>
CHEMBL3545280

> <chembl_pref_name>
EFATUTAZONE

> <efficacy>
1

> <Forcefield>
MMFF

> <ForcefieldBase>
MMFF

> <ForcefieldFFML>
<?xml version="1.0" encoding="UTF-8"?>
<!DOCTYPE ffml SYSTEM "Ffml.dtd">
<ffml version="1.0">
<forcefield name="MMFF" derivedFrom="MMFF" base="MMFF">
<atomTypes>
<atomType
name="O100"
element="O"
mass="16"
annotation=""/>
<atomType
name="C101"
element="C"
mass="12.011"
annotation=""/>
<atomType
name="S102"
element="S"
mass="32.066"
annotation=""/>
<atomType
name="N103"
element="N"
mass="14.007"
annotation=""/>
<atomType
name="H104"
element="H"
mass="1.008"
annotation=""/>
</atomTypes>
<parameters>
</parameters>
</forcefield>
</ffml>

> <Initial Potential Energy>
147.58944

> <Initial RMS Gradient>
37.38309

> <Minimization Criteria>
CONJUG> Minimization exiting with gradient tolerance ( 0.0100000) satisfied.

> <CHARMm Energy>
4.1735

> <Potential Energy>
4.1735

> <RMS Gradient>
0.0095

> <Bond Energy>
7.32157

> <Angle Energy>
21.04774

> <STRBend>
-0.3397

> <Dihedral Energy>
18.9053

> <OOPLane>
1.07833

> <Van der Waals Energy>
62.85477

> <Electrostatic Energy>
-106.6945

> <Hydrogen Bond Energy>
0

> <Solvation Free Energy>
0

> <HasGasteigerCharges>
true

> <REMARK99>
REMARK  99  MacroMolecule created from Mol2 file
REMARK  99  CHEMBL3545280
REMARK  99  PROTEIN
REMARK  99  GASTEIGER
REMARK  99
REMARK  99

$$$$
CHEMBL5094953
  SciTegic05292516403D

 55 58  0  0  0  0            999 V2000
   12.0197   -2.6726   -1.5768 O   0  0
   12.0194   -3.2240   -0.2341 S   0  0
   11.0563   -4.2569    0.1187 O   0  0
   15.2637   -2.3806   -1.1168 C   0  0
   14.7114   -2.7883    0.1058 C   0  0
   15.2063   -2.2119    1.2833 C   0  0
   16.2221   -1.2496    1.2376 C   0  0
   16.7799   -0.8401    0.0147 C   0  0
   16.2915   -1.4276   -1.1625 C   0  0
   17.9296    0.1410    0.0207 C   0  0
   19.1875   -0.5620   -0.0586 N   0  0
   20.4047    0.0765   -0.0150 C   0  0
   21.5790   -0.8224   -0.1523 C   0  0
   20.5731    1.2774    0.1629 O   0  0
   21.5624   -1.9033   -1.0394 C   0  0
   22.6443   -2.7829   -1.1209 C   0  0
   22.7081   -0.5615    0.6341 C   0  0
   23.8046   -1.4424    0.5712 C   0  0
   23.7481   -2.5428   -0.2891 C   0  0
   24.9265   -3.2460   -0.1156 N   0  0
   25.7357   -2.5948    0.7826 C   0  0
   25.0617   -1.4830    1.2303 C   0  0
   25.2738   -4.5014   -0.7767 C   0  0
   24.4575   -5.6616   -0.2544 C   0  0
   24.4506   -5.9852    1.1136 C   0  0
   23.7061   -7.0667    1.5910 C   0  0
   22.9576   -7.8382    0.7068 C   0  0
   22.9619   -7.5232   -0.6460 C   0  0
   23.7093   -6.4556   -1.1353 C   0  0
   22.2115   -8.2432   -1.4907 F   0  0
   13.6498   -3.8594    0.1565 C   0  0
   11.7676   -1.8792    0.9019 C   0  0
   16.9714   -1.0591   -2.7072 Cl  0  0
   14.9010   -2.8173   -2.0477 H   0  0
   14.8148   -2.5107    2.2554 H   0  0
   16.5918   -0.8294    2.1726 H   0  0
   17.8613    0.8534   -0.8086 H   0  0
   17.9278    0.7390    0.9399 H   0  0
   19.1619   -1.5704   -0.1246 H   0  0
   20.7064   -2.0709   -1.6897 H   0  0
   22.6223   -3.6215   -1.8091 H   0  0
   22.7440    0.3028    1.2931 H   0  0
   26.7118   -2.9803    1.0427 H   0  0
   25.4285   -0.7717    1.9585 H   0  0
   25.1229   -4.3460   -1.8512 H   0  0
   26.3404   -4.6958   -0.6162 H   0  0
   25.0283   -5.3930    1.8221 H   0  0
   23.7171   -7.3058    2.6516 H   0  0
   22.3802   -8.6842    1.0633 H   0  0
   23.6968   -6.2551   -2.2030 H   0  0
   13.8712   -4.6575   -0.5601 H   0  0
   13.5927   -4.3127    1.1519 H   0  0
   11.9290   -2.2410    1.9189 H   0  0
   10.7370   -1.5346    0.7912 H   0  0
   12.4517   -1.0649    0.6598 H   0  0
  2  1  2  0
  2 32  1  0
  3  2  2  0
  4  5  2  0
  4 34  1  0
  5  6  1  0
  5 31  1  0
  6  7  2  0
  6 35  1  0
  7  8  1  0
  7 36  1  0
  8  9  2  0
  8 10  1  0
  9  4  1  0
  9 33  1  0
 10 11  1  0
 10 37  1  0
 10 38  1  0
 11 12  1  0
 11 39  1  0
 12 13  1  0
 12 14  2  0
 13 15  2  0
 15 16  1  0
 15 40  1  0
 16 19  2  0
 16 41  1  0
 17 13  1  0
 17 42  1  0
 18 17  2  0
 18 19  1  0
 19 20  1  0
 20 21  1  0
 20 23  1  0
 21 22  2  0
 21 43  1  0
 22 18  1  0
 22 44  1  0
 23 24  1  0
 23 45  1  0
 23 46  1  0
 24 25  2  0
 25 26  1  0
 25 47  1  0
 26 27  2  0
 26 48  1  0
 27 28  1  0
 27 49  1  0
 28 29  2  0
 28 30  1  0
 29 24  1  0
 29 50  1  0
 31  2  1  0
 31 51  1  0
 31 52  1  0
 32 53  1  0
 32 54  1  0
 32 55  1  0
M  END
> <Name>
CHEMBL5094953

> <Clean Energy>
35.9991

> <chembl_id>
CHEMBL5094953

> <chembl_pref_name>
None

> <efficacy>
1.035137702

> <Forcefield>
MMFF

> <ForcefieldBase>
MMFF

> <ForcefieldFFML>
<?xml version="1.0" encoding="UTF-8"?>
<!DOCTYPE ffml SYSTEM "Ffml.dtd">
<ffml version="1.0">
<forcefield name="MMFF" derivedFrom="MMFF" base="MMFF">
<atomTypes>
<atomType
name="O100"
element="O"
mass="16"
annotation=""/>
<atomType
name="S101"
element="S"
mass="32.066"
annotation=""/>
<atomType
name="C102"
element="C"
mass="12.011"
annotation=""/>
<atomType
name="N103"
element="N"
mass="14.007"
annotation=""/>
<atomType
name="F104"
element="F"
mass="18.998"
annotation=""/>
<atomType
name="Cl105"
element="Cl"
mass="35.453"
annotation=""/>
<atomType
name="H106"
element="H"
mass="1.008"
annotation=""/>
</atomTypes>
<parameters>
</parameters>
</forcefield>
</ffml>

> <Initial Potential Energy>
487.65931

> <Initial RMS Gradient>
213.25404

> <Minimization Criteria>
CONJUG> Minimization exiting with gradient tolerance ( 0.0100000) satisfied.

> <CHARMm Energy>
71.66931

> <Potential Energy>
71.66931

> <RMS Gradient>
0.00995

> <Bond Energy>
6.16967

> <Angle Energy>
6.95504

> <STRBend>
0.55624

> <Dihedral Energy>
6.47851

> <OOPLane>
0.09345

> <Van der Waals Energy>
54.73015

> <Electrostatic Energy>
-3.31376

> <Hydrogen Bond Energy>
0

> <Solvation Free Energy>
0

> <HasGasteigerCharges>
true

> <REMARK99>
REMARK  99  MacroMolecule created from Mol2 file
REMARK  99  CHEMBL5094953
REMARK  99  PROTEIN
REMARK  99  GASTEIGER
REMARK  99
REMARK  99

$$$$
CHEMBL4164343
  SciTegic05292516403D

 64 67  0  0  0  0            999 V2000
    4.2030  -22.0625    0.0669 C   0  0
    3.9698  -23.4364    0.2706 C   0  0
    5.0497  -24.3295    0.2590 C   0  0
    5.4936  -21.5772   -0.1823 C   0  0
    6.5426  -22.4831   -0.2230 C   0  0
    6.3190  -23.8404    0.0067 C   0  0
    7.8296  -24.7614   -0.0701 S   0  0
    8.7591  -23.2958   -0.4092 C   0  0
    7.8972  -22.2028   -0.4739 N   0  0
    9.9735  -23.2849   -0.5459 O   0  0
    8.4425  -20.8850   -0.7231 C   0  0
    9.1216  -20.2815    0.5115 C   0  0
    9.7164  -19.0284    0.1443 O   0  0
   11.0817  -19.0497    0.2470 C   0  0
   11.7183  -19.0772    1.4870 C   0  0
   13.1153  -19.0326    1.5545 C   0  0
   13.8823  -18.9466    0.3829 C   0  0
   13.2252  -18.9074   -0.8562 C   0  0
   11.8297  -18.9486   -0.9225 C   0  0
   15.3930  -18.8624    0.4569 C   0  0
   16.0889  -20.1987    0.7472 C   0  0  2  0  0  0
   17.5478  -19.9227    1.1373 C   0  0
   16.1398  -21.0157   -0.4456 O   0  0
   15.1788  -22.0759   -0.4180 C   0  0
   15.2533  -22.8163   -1.7383 C   0  0
   18.4360  -20.4578    0.2548 O   0  0
   17.9044  -19.2896    2.1207 O   0  0
    2.6360  -23.9949    0.5168 C   0  0
    1.5196  -23.6047   -0.1180 C   0  0
    0.2547  -24.3306    0.0536 C   0  0
   -0.9428  -23.6367    0.2691 C   0  0
   -2.1407  -24.3452    0.4051 C   0  0
   -2.1618  -25.7333    0.3160 C   0  0
   -0.9727  -26.4141    0.0841 C   0  0
    0.2260  -25.7267   -0.0525 C   0  0
   -0.9250  -27.7720   -0.0205 O   0  0
   -3.3254  -23.6977    0.6314 O   0  0
    3.3740  -21.3578    0.1031 H   0  0
    4.8970  -25.3929    0.4247 H   0  0
    5.6486  -20.5140   -0.3369 H   0  0
    9.1913  -20.9760   -1.5211 H   0  0
    7.6805  -20.2067   -1.1203 H   0  0
    8.3724  -20.0790    1.2855 H   0  0
    9.8448  -20.9869    0.9412 H   0  0
   11.1355  -19.1098    2.4027 H   0  0
   13.6011  -19.0377    2.5289 H   0  0
   13.7970  -18.8303   -1.7791 H   0  0
   11.3309  -18.8963   -1.8859 H   0  0
   15.7741  -18.4487   -0.4865 H   0  0
   15.6445  -18.1229    1.2284 H   0  0
   15.6336  -20.7507    1.5786 H   0  0
   15.4166  -22.7587    0.4049 H   0  0
   14.1704  -21.6792   -0.2733 H   0  0
   14.5319  -23.6374   -1.7675 H   0  0
   16.2576  -23.2228   -1.8963 H   0  0
   15.0497  -22.1374   -2.5727 H   0  0
   17.8989  -20.9169   -0.4372 H   0  0
    2.6066  -24.8318    1.2136 H   0  0
    1.5135  -22.7864   -0.8315 H   0  0
   -0.9147  -22.5530    0.3366 H   0  0
   -3.1018  -26.2609    0.4268 H   0  0
    1.1372  -26.2864   -0.2511 H   0  0
   -1.8280  -28.1202    0.0779 H   0  0
   -3.1085  -22.7531    0.7148 H   0  0
  1  2  2  0
  1 38  1  0
  2  3  1  0
  2 28  1  0
  3  6  2  0
  3 39  1  0
  4  1  1  0
  4 40  1  0
  5  4  2  0
  5  6  1  0
  6  7  1  0
  7  8  1  0
  8  9  1  0
  8 10  2  0
  9  5  1  0
  9 11  1  0
 11 12  1  0
 11 41  1  0
 11 42  1  0
 12 13  1  0
 12 43  1  0
 12 44  1  0
 13 14  1  0
 14 15  2  0
 15 16  1  0
 15 45  1  0
 16 17  2  0
 16 46  1  0
 17 18  1  0
 17 20  1  0
 18 19  2  0
 18 47  1  0
 19 14  1  0
 19 48  1  0
 20 21  1  0
 20 49  1  0
 20 50  1  0
 21 22  1  0
 21 23  1  0
 21 51  1  0
 22 26  1  0
 22 27  2  0
 23 24  1  0
 24 25  1  0
 24 52  1  0
 24 53  1  0
 25 54  1  0
 25 55  1  0
 25 56  1  0
 26 57  1  0
 28 29  2  0
 28 58  1  0
 29 30  1  0
 29 59  1  0
 30 31  2  0
 31 32  1  0
 31 60  1  0
 32 33  2  0
 32 37  1  0
 33 34  1  0
 33 61  1  0
 34 35  2  0
 34 36  1  0
 35 30  1  0
 35 62  1  0
 36 63  1  0
 37 64  1  0
M  END
> <Name>
CHEMBL4164343

> <Clean Energy>
32.383598

> <chembl_id>
CHEMBL4164343

> <chembl_pref_name>
None

> <efficacy>
1.12

> <Forcefield>
MMFF

> <ForcefieldBase>
MMFF

> <ForcefieldFFML>
<?xml version="1.0" encoding="UTF-8"?>
<!DOCTYPE ffml SYSTEM "Ffml.dtd">
<ffml version="1.0">
<forcefield name="MMFF" derivedFrom="MMFF" base="MMFF">
<atomTypes>
<atomType
name="C100"
element="C"
mass="12.011"
annotation=""/>
<atomType
name="S101"
element="S"
mass="32.066"
annotation=""/>
<atomType
name="N102"
element="N"
mass="14.007"
annotation=""/>
<atomType
name="O103"
element="O"
mass="16"
annotation=""/>
<atomType
name="H104"
element="H"
mass="1.008"
annotation=""/>
</atomTypes>
<parameters>
</parameters>
</forcefield>
</ffml>

> <Initial Potential Energy>
169.23439

> <Initial RMS Gradient>
30.64094

> <Minimization Criteria>
STEEPD> Minimization exiting with gradient tolerance ( 3.0000000) satisfied.

> <CHARMm Energy>
36.83905

> <Potential Energy>
36.83905

> <RMS Gradient>
0.05695

> <Bond Energy>
6.35042

> <Angle Energy>
17.57769

> <STRBend>
0.44367

> <Dihedral Energy>
11.84209

> <OOPLane>
0.11324

> <Van der Waals Energy>
67.68225

> <Electrostatic Energy>
-67.17032

> <Hydrogen Bond Energy>
0

> <Solvation Free Energy>
0

> <HasGasteigerCharges>
true

> <REMARK99>
REMARK  99  MacroMolecule created from Mol2 file
REMARK  99  CHEMBL4164343
REMARK  99  PROTEIN
REMARK  99  GASTEIGER
REMARK  99
REMARK  99

$$$$
CHEMBL4463602
  SciTegic05292516403D

 69 72  0  0  0  0            999 V2000
   17.4391  -12.2154   -0.0488 N   0  0
   17.4497  -13.3877   -0.6010 C   0  0
   18.4820  -13.8360   -1.4034 N   0  0
   19.5075  -12.9714   -1.7449 C   0  0
   19.5468  -11.6754   -1.0192 C   0  0
   18.5131  -11.3873   -0.2131 C   0  0
   18.4304  -10.1354    0.6221 C   0  0
   20.3397  -13.1795   -2.6286 O   0  0
   20.7357  -10.7974   -1.2904 C   0  0
   21.9035  -11.2133   -0.4231 C   0  0
   22.8254  -10.2107   -0.3891 O   0  0
   22.0162  -12.2913    0.1511 O   0  0
   16.2492  -14.3043   -0.3738 C   0  0
   15.2355  -13.7746    0.6419 C   0  0
   14.0792  -14.7562    0.8330 C   0  0
   13.0600  -14.2309    1.8312 C   0  0
   18.4875  -15.1447   -2.0616 C   0  0
   19.4422  -16.1576   -1.4534 C   0  0
   20.2668  -16.9148   -2.2968 C   0  0
   21.1068  -17.9092   -1.7819 C   0  0
   21.1532  -18.1857   -0.4063 C   0  0
   20.3339  -17.4214    0.4353 C   0  0
   19.4846  -16.4267   -0.0792 C   0  0
   22.0892  -19.2022    0.1112 C   0  0
   21.7045  -20.4181    0.7004 C   0  0
   22.6679  -21.3754    1.0923 C   0  0
   24.0281  -21.1387    0.9082 C   0  0
   24.4299  -19.9343    0.3446 C   0  0
   23.4746  -18.9861   -0.0486 C   0  0
   20.3097  -20.8075    0.9254 C   0  0
   19.4683  -20.2662    1.7388 N   0  0
   18.3200  -21.1357    1.7013 O   0  0
   18.6557  -22.1834    0.8734 C   0  0
   19.8406  -21.8958    0.3097 N   0  0
   18.0288  -23.2266    0.7272 O   0  0
   23.9714  -10.5326    0.4016 C   0  0
   24.8672   -9.3689    0.4064 C   0  0
   25.5895   -8.4086    0.4003 C   0  0
   26.4633   -7.2349    0.3861 C   0  0
   19.4020   -9.6607    0.7829 H   0  0
   18.0328  -10.3678    1.6168 H   0  0
   17.7613   -9.4100    0.1483 H   0  0
   21.0431  -10.8481   -2.3405 H   0  0
   20.4993   -9.7474   -1.0878 H   0  0
   15.7493  -14.4425   -1.3403 H   0  0
   16.6101  -15.2833   -0.0416 H   0  0
   15.7320  -13.5997    1.6044 H   0  0
   14.8428  -12.8075    0.3042 H   0  0
   13.5813  -14.9363   -0.1269 H   0  0
   14.4639  -15.7205    1.1850 H   0  0
   12.2443  -14.9504    1.9534 H   0  0
   12.6294  -13.2840    1.4902 H   0  0
   13.5185  -14.0673    2.8117 H   0  0
   17.4907  -15.5932   -2.0772 H   0  0
   18.7540  -14.9826   -3.1143 H   0  0
   20.2739  -16.7291   -3.3694 H   0  0
   21.7440  -18.4594   -2.4714 H   0  0
   20.3539  -17.5843    1.5120 H   0  0
   18.8627  -15.8698    0.6177 H   0  0
   22.3576  -22.3116    1.5560 H   0  0
   24.7603  -21.8900    1.2083 H   0  0
   25.4851  -19.7109    0.2068 H   0  0
   23.8245  -18.0555   -0.4953 H   0  0
   20.3062  -22.4930   -0.3471 H   0  0
   23.6640  -10.7661    1.4277 H   0  0
   24.4874  -11.3970   -0.0320 H   0  0
   27.5155   -7.5344    0.3975 H   0  0
   26.2796   -6.6031    1.2601 H   0  0
   26.2910   -6.6332   -0.5114 H   0  0
  1  2  2  0
  1  6  1  0
  2  3  1  0
  2 13  1  0
  3  4  1  0
  3 17  1  0
  4  5  1  0
  4  8  2  0
  5  6  2  0
  5  9  1  0
  6  7  1  0
  7 40  1  0
  7 41  1  0
  7 42  1  0
  9 10  1  0
  9 43  1  0
  9 44  1  0
 10 11  1  0
 10 12  2  0
 11 36  1  0
 13 14  1  0
 13 45  1  0
 13 46  1  0
 14 15  1  0
 14 47  1  0
 14 48  1  0
 15 16  1  0
 15 49  1  0
 15 50  1  0
 16 51  1  0
 16 52  1  0
 16 53  1  0
 17 18  1  0
 17 54  1  0
 17 55  1  0
 18 19  2  0
 19 20  1  0
 19 56  1  0
 20 21  2  0
 20 57  1  0
 21 22  1  0
 21 24  1  0
 22 23  2  0
 22 58  1  0
 23 18  1  0
 23 59  1  0
 24 25  2  0
 25 26  1  0
 25 30  1  0
 26 27  2  0
 26 60  1  0
 27 28  1  0
 27 61  1  0
 28 29  2  0
 28 62  1  0
 29 24  1  0
 29 63  1  0
 30 31  2  0
 31 32  1  0
 32 33  1  0
 33 34  1  0
 33 35  2  0
 34 30  1  0
 34 64  1  0
 36 37  1  0
 36 65  1  0
 36 66  1  0
 37 38  3  0
 38 39  1  0
 39 67  1  0
 39 68  1  0
 39 69  1  0
M  END
> <Name>
CHEMBL4463602

> <Clean Energy>
98.983704

> <chembl_id>
CHEMBL4463602

> <chembl_pref_name>
None

> <efficacy>
0.94017094

> <Forcefield>
MMFF

> <ForcefieldBase>
MMFF

> <ForcefieldFFML>
<?xml version="1.0" encoding="UTF-8"?>
<!DOCTYPE ffml SYSTEM "Ffml.dtd">
<ffml version="1.0">
<forcefield name="MMFF" derivedFrom="MMFF" base="MMFF">
<atomTypes>
<atomType
name="N100"
element="N"
mass="14.007"
annotation=""/>
<atomType
name="C101"
element="C"
mass="12.011"
annotation=""/>
<atomType
name="O102"
element="O"
mass="16"
annotation=""/>
<atomType
name="H103"
element="H"
mass="1.008"
annotation=""/>
</atomTypes>
<parameters>
</parameters>
</forcefield>
</ffml>

> <Initial Potential Energy>
359.34064

> <Initial RMS Gradient>
48.03132

> <Minimization Criteria>
STEEPD> Minimization exiting with gradient tolerance ( 3.0000000) satisfied.

> <CHARMm Energy>
-30.06442

> <Potential Energy>
-30.06442

> <RMS Gradient>
0.08635

> <Bond Energy>
8.51054

> <Angle Energy>
20.62857

> <STRBend>
0.0603

> <Dihedral Energy>
7.23508

> <OOPLane>
0.47102

> <Van der Waals Energy>
63.56442

> <Electrostatic Energy>
-130.53435

> <Hydrogen Bond Energy>
0

> <Solvation Free Energy>
0

> <HasGasteigerCharges>
true

> <REMARK99>
REMARK  99  MacroMolecule created from Mol2 file
REMARK  99  CHEMBL4463602
REMARK  99  PROTEIN
REMARK  99  GASTEIGER
REMARK  99
REMARK  99

$$$$
CHEMBL4164828
  SciTegic05292516403D

 51 54  0  0  0  0            999 V2000
    0.1867  -20.6876    0.9080 C   0  0
    0.5790  -21.1615   -0.3382 C   0  0
    1.3807  -20.4540   -1.1646 N   0  0
    1.8049  -19.2401   -0.7391 C   0  0
    1.4201  -18.6589    0.4710 C   0  0
    0.6109  -19.4248    1.3129 C   0  0
    2.6018  -18.5554   -1.6347 O   0  0
    3.9374  -18.4414   -1.3039 C   0  0
    4.6724  -19.4796   -0.7110 C   0  0
    5.8800  -16.9800   -1.3143 C   0  0
    4.5382  -17.2223   -1.6273 C   0  0
    6.6214  -17.9923   -0.6870 C   0  0
    6.0183  -19.2158   -0.4066 C   0  0
    7.0257  -19.9595    0.1668 N   0  0
    8.1575  -19.1726    0.2426 C   0  0
    7.9285  -17.9797   -0.2750 N   0  0
    6.9276  -21.3326    0.6004 C   0  0
    9.4554  -19.6157    0.8420 C   0  0
    9.9881  -20.6303   -0.0167 O   0  0
   11.3348  -20.8301    0.1322 C   0  0
   11.7551  -22.1334    0.3965 C   0  0
   13.1148  -22.4235    0.5054 C   0  0
   14.0590  -21.4137    0.3182 C   0  0
   13.6447  -20.1135    0.0050 C   0  0
   12.2749  -19.8178   -0.0788 C   0  0
   14.6970  -19.0857   -0.2165 C   0  0
   15.7809  -19.1071    0.3414 O   0  0
   14.3412  -18.1483   -1.1214 O   0  0
    1.8684  -17.2940    0.8924 C   0  0
    0.1118  -22.5039   -0.8144 C   0  0
   -0.4515  -21.2827    1.5530 H   0  0
    0.2926  -19.0386    2.2785 H   0  0
    4.2203  -20.4426   -0.5029 H   0  0
    6.3449  -16.0281   -1.5467 H   0  0
    3.9551  -16.4443   -2.1136 H   0  0
    7.4767  -21.9565   -0.1090 H   0  0
    5.8817  -21.6433    0.6346 H   0  0
    7.3551  -21.4208    1.6024 H   0  0
   10.1123  -18.7441    0.9341 H   0  0
    9.2966  -20.0330    1.8424 H   0  0
   11.0232  -22.9270    0.5216 H   0  0
   13.4400  -23.4372    0.7272 H   0  0
   15.1200  -21.6446    0.4018 H   0  0
   11.9298  -18.8145   -0.3119 H   0  0
   13.5496  -18.3554   -1.6523 H   0  0
    1.2131  -16.8871    1.6703 H   0  0
    1.8333  -16.5931    0.0522 H   0  0
    2.8861  -17.3345    1.2921 H   0  0
    0.5126  -22.7266   -1.8085 H   0  0
   -0.9808  -22.5243   -0.8747 H   0  0
    0.4492  -23.2869   -0.1280 H   0  0
  1  2  2  0
  1 31  1  0
  2  3  1  0
  2 30  1  0
  3  4  2  0
  4  5  1  0
  4  7  1  0
  5  6  2  0
  5 29  1  0
  6  1  1  0
  6 32  1  0
  7  8  1  0
  8  9  2  0
  9 13  1  0
  9 33  1  0
 10 11  2  0
 10 34  1  0
 11  8  1  0
 11 35  1  0
 12 10  1  0
 12 13  2  0
 13 14  1  0
 14 15  1  0
 14 17  1  0
 15 16  2  0
 15 18  1  0
 16 12  1  0
 17 36  1  0
 17 37  1  0
 17 38  1  0
 18 19  1  0
 18 39  1  0
 18 40  1  0
 19 20  1  0
 20 21  2  0
 21 22  1  0
 21 41  1  0
 22 23  2  0
 22 42  1  0
 23 24  1  0
 23 43  1  0
 24 25  2  0
 24 26  1  0
 25 20  1  0
 25 44  1  0
 26 27  2  0
 26 28  1  0
 28 45  1  0
 29 46  1  0
 29 47  1  0
 29 48  1  0
 30 49  1  0
 30 50  1  0
 30 51  1  0
M  END
> <Name>
CHEMBL4164828

> <Clean Energy>
49.4147

> <chembl_id>
CHEMBL4164828

> <chembl_pref_name>
None

> <efficacy>
1.17

> <Forcefield>
MMFF

> <ForcefieldBase>
MMFF

> <ForcefieldFFML>
<?xml version="1.0" encoding="UTF-8"?>
<!DOCTYPE ffml SYSTEM "Ffml.dtd">
<ffml version="1.0">
<forcefield name="MMFF" derivedFrom="MMFF" base="MMFF">
<atomTypes>
<atomType
name="C100"
element="C"
mass="12.011"
annotation=""/>
<atomType
name="N101"
element="N"
mass="14.007"
annotation=""/>
<atomType
name="O102"
element="O"
mass="16"
annotation=""/>
<atomType
name="H103"
element="H"
mass="1.008"
annotation=""/>
</atomTypes>
<parameters>
</parameters>
</forcefield>
</ffml>

> <Initial Potential Energy>
197.17682

> <Initial RMS Gradient>
35.67867

> <Minimization Criteria>
STEEPD> Minimization exiting with gradient tolerance ( 3.0000000) satisfied.

> <CHARMm Energy>
70.80108

> <Potential Energy>
70.80108

> <RMS Gradient>
0.07496

> <Bond Energy>
4.80532

> <Angle Energy>
13.248

> <STRBend>
0.72328

> <Dihedral Energy>
17.11604

> <OOPLane>
0.12557

> <Van der Waals Energy>
58.27272

> <Electrostatic Energy>
-23.48983

> <Hydrogen Bond Energy>
0

> <Solvation Free Energy>
0

> <HasGasteigerCharges>
true

> <REMARK99>
REMARK  99  MacroMolecule created from Mol2 file
REMARK  99  CHEMBL4164828
REMARK  99  PROTEIN
REMARK  99  GASTEIGER
REMARK  99
REMARK  99

$$$$
CHEMBL2377529
  SciTegic05292516403D

 70 73  0  0  0  0            999 V2000
   27.2393  -19.3953   -0.6737 C   0  0
   27.3202  -20.2114    0.4670 C   0  0
   28.4638  -21.0112    0.6369 C   0  0
   29.5157  -20.9627   -0.2750 C   0  0
   29.4408  -20.1083   -1.3790 C   0  0
   28.2911  -19.3466   -1.5949 C   0  0
   30.5699  -20.0044   -2.3350 C   0  0
   31.8133  -20.0592   -1.7573 N   0  0
   30.3486  -19.8640   -3.5315 O   0  0
   33.0347  -20.0803   -2.5274 C   0  0
   34.1836  -20.5409   -1.6584 C   0  0
   34.4189  -21.9026   -1.4341 C   0  0
   35.4243  -22.3218   -0.5640 C   0  0
   36.1926  -21.3815    0.1229 C   0  0
   35.9990  -20.0108   -0.0865 C   0  0
   34.9772  -19.6050   -0.9682 C   0  0
   36.7958  -18.9541    0.6570 C   0  0
   38.2672  -19.2850    1.0113 C   0  0  2  0  0  0
   38.7816  -18.2023    1.9459 C   0  0
   39.1614  -19.3611   -0.2393 C   0  0
   39.8268  -18.5883    2.7129 O   0  0
   38.3103  -17.0781    2.0360 O   0  0
   40.4427  -20.1268    0.0197 C   0  0
   41.6571  -19.4545    0.2074 C   0  0
   42.8206  -20.1693    0.5022 C   0  0
   42.7843  -21.5588    0.6030 C   0  0
   41.5842  -22.2375    0.4012 C   0  0
   40.4201  -21.5263    0.1102 C   0  0
   33.6737  -22.8251   -2.1167 O   0  0
   32.8537  -23.6032   -1.2331 C   0  0
   31.6518  -24.1027   -2.0269 C   0  0
   30.7198  -24.9423   -1.1715 C   0  0
   26.2588  -20.2216    1.4827 C   0  0
   24.9137  -20.4031    1.1429 C   0  0
   23.9657  -20.4182    2.1533 C   0  0
   24.2631  -20.2666    3.4611 N   0  0
   25.5623  -20.0894    3.7730 C   0  0
   26.5774  -20.0542    2.8364 C   0  0
   26.3646  -18.7685   -0.8420 H   0  0
   28.5352  -21.6826    1.4912 H   0  0
   30.3817  -21.5993   -0.1183 H   0  0
   28.2167  -18.6996   -2.4668 H   0  0
   31.9109  -20.0366   -0.7518 H   0  0
   32.9105  -20.7247   -3.4048 H   0  0
   33.2145  -19.0662   -2.9019 H   0  0
   35.6214  -23.3807   -0.4217 H   0  0
   36.9430  -21.7481    0.8168 H   0  0
   34.7874  -18.5414   -1.1139 H   0  0
   36.7823  -18.0258    0.0697 H   0  0
   36.2418  -18.7401    1.5817 H   0  0
   38.2836  -20.2222    1.5804 H   0  0
   38.6404  -19.8608   -1.0648 H   0  0
   39.4006  -18.3534   -0.6020 H   0  0
   40.1870  -19.4767    2.5145 H   0  0
   41.7135  -18.3688    0.1378 H   0  0
   43.7608  -19.6414    0.6514 H   0  0
   43.6961  -22.1097    0.8292 H   0  0
   41.5579  -23.3226    0.4644 H   0  0
   39.4938  -22.0733   -0.0549 H   0  0
   33.4386  -24.4538   -0.8622 H   0  0
   32.5085  -23.0062   -0.3782 H   0  0
   31.1045  -23.2476   -2.4412 H   0  0
   31.9961  -24.6870   -2.8883 H   0  0
   29.8643  -25.2829   -1.7630 H   0  0
   30.3363  -24.3645   -0.3247 H   0  0
   31.2345  -25.8250   -0.7792 H   0  0
   24.6103  -20.5475    0.1117 H   0  0
   22.9089  -20.5602    1.9356 H   0  0
   25.7796  -19.9731    4.8297 H   0  0
   27.5988  -19.8911    3.1633 H   0  0
  1  2  2  0
  1 39  1  0
  2  3  1  0
  2 33  1  0
  3  4  2  0
  3 40  1  0
  4  5  1  0
  4 41  1  0
  5  6  2  0
  5  7  1  0
  6  1  1  0
  6 42  1  0
  7  8  1  0
  7  9  2  0
  8 10  1  0
  8 43  1  0
 10 11  1  0
 10 44  1  0
 10 45  1  0
 11 12  2  0
 12 13  1  0
 12 29  1  0
 13 14  2  0
 13 46  1  0
 14 15  1  0
 14 47  1  0
 15 16  2  0
 15 17  1  0
 16 11  1  0
 16 48  1  0
 17 18  1  0
 17 49  1  0
 17 50  1  0
 18 19  1  0
 18 20  1  0
 18 51  1  0
 19 21  1  0
 19 22  2  0
 20 23  1  0
 20 52  1  0
 20 53  1  0
 21 54  1  0
 23 24  2  0
 24 25  1  0
 24 55  1  0
 25 26  2  0
 25 56  1  0
 26 27  1  0
 26 57  1  0
 27 28  2  0
 27 58  1  0
 28 23  1  0
 28 59  1  0
 29 30  1  0
 30 31  1  0
 30 60  1  0
 30 61  1  0
 31 32  1  0
 31 62  1  0
 31 63  1  0
 32 64  1  0
 32 65  1  0
 32 66  1  0
 33 34  2  0
 34 35  1  0
 34 67  1  0
 35 36  2  0
 35 68  1  0
 36 37  1  0
 37 38  2  0
 37 69  1  0
 38 33  1  0
 38 70  1  0
M  END
> <Name>
CHEMBL2377529

> <Clean Energy>
16.667999

> <chembl_id>
CHEMBL2377529

> <chembl_pref_name>
None

> <efficacy>
1.08

> <Forcefield>
MMFF

> <ForcefieldBase>
MMFF

> <ForcefieldFFML>
<?xml version="1.0" encoding="UTF-8"?>
<!DOCTYPE ffml SYSTEM "Ffml.dtd">
<ffml version="1.0">
<forcefield name="MMFF" derivedFrom="MMFF" base="MMFF">
<atomTypes>
<atomType
name="C100"
element="C"
mass="12.011"
annotation=""/>
<atomType
name="N101"
element="N"
mass="14.007"
annotation=""/>
<atomType
name="O102"
element="O"
mass="16"
annotation=""/>
<atomType
name="H103"
element="H"
mass="1.008"
annotation=""/>
</atomTypes>
<parameters>
</parameters>
</forcefield>
</ffml>

> <Initial Potential Energy>
148.43469

> <Initial RMS Gradient>
31.23844

> <Minimization Criteria>
STEEPD> Minimization exiting with gradient tolerance ( 3.0000000) satisfied.

> <CHARMm Energy>
29.43731

> <Potential Energy>
29.43731

> <RMS Gradient>
0.17358

> <Bond Energy>
8.17884

> <Angle Energy>
8.58813

> <STRBend>
0.63

> <Dihedral Energy>
8.86661

> <OOPLane>
0.11591

> <Van der Waals Energy>
79.8369

> <Electrostatic Energy>
-76.77908

> <Hydrogen Bond Energy>
0

> <Solvation Free Energy>
0

> <HasGasteigerCharges>
true

> <REMARK99>
REMARK  99  MacroMolecule created from Mol2 file
REMARK  99  CHEMBL2377529
REMARK  99  PROTEIN
REMARK  99  GASTEIGER
REMARK  99
REMARK  99

$$$$
CHEMBL5070178
  SciTegic05292516403D

 51 53  0  0  0  0            999 V2000
   46.8058  -27.0408   -0.9356 C   0  0
   47.3840  -27.8285    0.2456 C   0  0
   47.2500  -27.1118    1.5922 C   0  0
   43.1526  -29.2079    0.3699 C   0  0
   42.8850  -30.5265   -0.0008 C   0  0
   43.9977  -31.3607   -0.2036 C   0  0
   45.3323  -30.8952   -0.0723 C   0  0
   45.5751  -29.5511    0.2589 C   0  0
   44.4737  -28.7295    0.5001 C   0  0
   46.8913  -29.1844    0.3355 O   0  0
   41.4975  -31.0815   -0.3102 C   0  0
   40.3131  -30.3887    0.1833 N   0  0
   39.8077  -29.1712   -0.3094 C   0  0
   38.5256  -29.0600    0.2178 N   0  0
   38.3250  -30.2172    0.8878 C   0  0
   39.3191  -31.0492    0.8958 N   0  0
   40.3894  -28.4275   -1.0858 O   0  0
   37.6124  -27.9871    0.0541 C   0  0
   38.0080  -26.7725   -0.5323 C   0  0
   37.1030  -25.7127   -0.6931 C   0  0
   35.7721  -25.8351   -0.2736 C   0  0
   35.3736  -27.0337    0.3269 C   0  0
   36.2803  -28.0925    0.4872 C   0  0
   34.8007  -24.6882   -0.4243 C   0  0
   35.0682  -23.8870   -1.4936 F   0  0
   33.5091  -25.0973   -0.5866 F   0  0
   34.7923  -23.8677    0.6633 F   0  0
   46.4731  -31.8671   -0.2633 C   0  0
   46.1612  -32.9122   -1.0827 F   0  0
   47.5938  -31.3033   -0.8107 F   0  0
   46.8809  -32.4280    0.9092 F   0  0
   48.9150  -27.9253   -0.0431 C   0  0
   49.7014  -26.9871    0.0297 O   0  0
   49.3280  -29.1580   -0.4266 O   0  0
   45.7685  -26.7391   -0.7751 H   0  0
   46.8286  -27.6438   -1.8508 H   0  0
   47.3745  -26.1229   -1.1241 H   0  0
   47.7406  -27.6902    2.3842 H   0  0
   46.2118  -26.9837    1.9031 H   0  0
   47.7103  -26.1178    1.5681 H   0  0
   42.3419  -28.5048    0.5464 H   0  0
   43.8386  -32.4038   -0.4872 H   0  0
   44.5809  -27.6912    0.7915 H   0  0
   41.4020  -31.1185   -1.4026 H   0  0
   41.4450  -32.1092    0.0696 H   0  0
   37.3686  -30.4129    1.3859 H   0  0
   39.0345  -26.6095   -0.8630 H   0  0
   37.4338  -24.7798   -1.1519 H   0  0
   34.3473  -27.1561    0.6727 H   0  0
   35.8875  -28.9952    0.9469 H   0  0
   48.5951  -29.8111   -0.4401 H   0  0
  1 35  1  0
  1 36  1  0
  1 37  1  0
  2  1  1  0
  2 32  1  0
  3  2  1  0
  3 38  1  0
  3 39  1  0
  3 40  1  0
  4  5  2  0
  4 41  1  0
  5  6  1  0
  5 11  1  0
  6  7  2  0
  6 42  1  0
  7  8  1  0
  7 28  1  0
  8  9  2  0
  8 10  1  0
  9  4  1  0
  9 43  1  0
 10  2  1  0
 11 12  1  0
 11 44  1  0
 11 45  1  0
 12 13  1  0
 13 14  1  0
 13 17  2  0
 14 15  1  0
 14 18  1  0
 15 16  2  0
 15 46  1  0
 16 12  1  0
 18 19  2  0
 19 20  1  0
 19 47  1  0
 20 21  2  0
 20 48  1  0
 21 22  1  0
 21 24  1  0
 22 23  2  0
 22 49  1  0
 23 18  1  0
 23 50  1  0
 24 25  1  0
 24 26  1  0
 24 27  1  0
 28 29  1  0
 28 30  1  0
 28 31  1  0
 32 33  2  0
 32 34  1  0
 34 51  1  0
M  END
> <Name>
CHEMBL5070178

> <Clean Energy>
74.142403

> <chembl_id>
CHEMBL5070178

> <chembl_pref_name>
None

> <efficacy>
1.15

> <Forcefield>
MMFF

> <ForcefieldBase>
MMFF

> <ForcefieldFFML>
<?xml version="1.0" encoding="UTF-8"?>
<!DOCTYPE ffml SYSTEM "Ffml.dtd">
<ffml version="1.0">
<forcefield name="MMFF" derivedFrom="MMFF" base="MMFF">
<atomTypes>
<atomType
name="C100"
element="C"
mass="12.011"
annotation=""/>
<atomType
name="O101"
element="O"
mass="16"
annotation=""/>
<atomType
name="N102"
element="N"
mass="14.007"
annotation=""/>
<atomType
name="F103"
element="F"
mass="18.998"
annotation=""/>
<atomType
name="H104"
element="H"
mass="1.008"
annotation=""/>
</atomTypes>
<parameters>
</parameters>
</forcefield>
</ffml>

> <Initial Potential Energy>
247.77107

> <Initial RMS Gradient>
33.62695

> <Minimization Criteria>
CONJUG> Minimization exiting with gradient tolerance ( 0.0100000) satisfied.

> <CHARMm Energy>
126.33039

> <Potential Energy>
126.33039

> <RMS Gradient>
0.00981

> <Bond Energy>
9.07236

> <Angle Energy>
35.68092

> <STRBend>
-0.43648

> <Dihedral Energy>
4.98673

> <OOPLane>
0.42561

> <Van der Waals Energy>
52.21151

> <Electrostatic Energy>
24.38975

> <Hydrogen Bond Energy>
0

> <Solvation Free Energy>
0

> <HasGasteigerCharges>
true

> <REMARK99>
REMARK  99  MacroMolecule created from Mol2 file
REMARK  99  CHEMBL5070178
REMARK  99  PROTEIN
REMARK  99  GASTEIGER
REMARK  99
REMARK  99

$$$$
CHEMBL3763373
  SciTegic05292516403D

 47 48  0  0  0  0            999 V2000
    0.1690    0.0060    0.7321 C   0  0
    0.3709    1.1427   -0.0511 C   0  0
   -0.4675    1.4035   -1.1279 C   0  0
   -1.5099    0.5258   -1.4190 C   0  0
   -1.7236   -0.6316   -0.6452 C   0  0
   -0.8772   -0.8883    0.4526 C   0  0
   -2.8939   -1.5191   -0.9952 C   0  0
   -4.1170   -1.0153   -0.4343 N   0  0
   -5.2998   -1.6890   -0.6266 C   0  0
   -6.5099   -0.9778   -0.1557 C   0  0
   -5.3928   -2.7596   -1.2132 O   0  0
   -7.6550   -1.0296   -0.9552 C   0  0
   -8.7630   -0.2521   -0.6274 C   0  0
   -8.7323    0.5749    0.5042 C   0  0
   -7.6119    0.5560    1.3468 C   0  0
   -6.4992   -0.2152    1.0166 C   0  0
   -9.8681    1.5233    0.7762 C   0  0
   -9.4959    3.0024    0.5549 C   0  0  2  0  0  0
  -10.7184    3.8183    0.9128 C   0  0
   -9.0090    3.3637   -0.8657 C   0  0
   -7.4918    3.4068   -0.9964 C   0  0
  -11.7093    3.7639   -0.0078 O   0  0
  -10.8410    4.4395    1.9576 O   0  0
   -1.0362   -2.1121    1.3140 C   0  0
    0.8506   -0.1845    1.5605 H   0  0
    1.1949    1.8161    0.1749 H   0  0
   -0.3053    2.2872   -1.7393 H   0  0
   -2.1777    0.7537   -2.2493 H   0  0
   -3.0107   -1.5725   -2.0851 H   0  0
   -2.7425   -2.5501   -0.6582 H   0  0
   -4.1053   -0.0946   -0.0177 H   0  0
   -7.6667   -1.6430   -1.8540 H   0  0
   -9.6346   -0.2740   -1.2791 H   0  0
   -7.5869    1.1694    2.2458 H   0  0
   -5.6309   -0.2052    1.6696 H   0  0
  -10.7311    1.2508    0.1545 H   0  0
  -10.2046    1.3743    1.8115 H   0  0
   -8.7186    3.2952    1.2737 H   0  0
   -9.4168    2.6641   -1.6048 H   0  0
   -9.3789    4.3582   -1.1470 H   0  0
   -7.2138    3.7410   -2.0014 H   0  0
   -7.0383    2.4263   -0.8406 H   0  0
   -7.0558    4.1079   -0.2778 H   0  0
  -11.4905    3.2255   -0.7917 H   0  0
   -0.3723   -2.0799    2.1845 H   0  0
   -0.7932   -3.0116    0.7398 H   0  0
   -2.0607   -2.1835    1.6928 H   0  0
  1  2  2  0
  1 25  1  0
  2  3  1  0
  2 26  1  0
  3  4  2  0
  3 27  1  0
  4  5  1  0
  4 28  1  0
  5  6  2  0
  5  7  1  0
  6  1  1  0
  6 24  1  0
  7  8  1  0
  7 29  1  0
  7 30  1  0
  8  9  1  0
  8 31  1  0
  9 10  1  0
  9 11  2  0
 10 12  2  0
 12 13  1  0
 12 32  1  0
 13 14  2  0
 13 33  1  0
 14 15  1  0
 14 17  1  0
 15 16  2  0
 15 34  1  0
 16 10  1  0
 16 35  1  0
 17 18  1  0
 17 36  1  0
 17 37  1  0
 18 19  1  0
 18 20  1  0
 18 38  1  0
 19 22  1  0
 19 23  2  0
 20 21  1  0
 20 39  1  0
 20 40  1  0
 21 41  1  0
 21 42  1  0
 21 43  1  0
 22 44  1  0
 24 45  1  0
 24 46  1  0
 24 47  1  0
M  END
> <Name>
CHEMBL3763373

> <Clean Energy>
11.5377

> <chembl_id>
CHEMBL3763373

> <chembl_pref_name>
None

> <efficacy>
1.006647673

> <Forcefield>
MMFF

> <ForcefieldBase>
MMFF

> <ForcefieldFFML>
<?xml version="1.0" encoding="UTF-8"?>
<!DOCTYPE ffml SYSTEM "Ffml.dtd">
<ffml version="1.0">
<forcefield name="MMFF" derivedFrom="MMFF" base="MMFF">
<atomTypes>
<atomType
name="C100"
element="C"
mass="12.011"
annotation=""/>
<atomType
name="N101"
element="N"
mass="14.007"
annotation=""/>
<atomType
name="O102"
element="O"
mass="16"
annotation=""/>
<atomType
name="H103"
element="H"
mass="1.008"
annotation=""/>
</atomTypes>
<parameters>
</parameters>
</forcefield>
</ffml>

> <Initial Potential Energy>
72.68181

> <Initial RMS Gradient>
27.11687

> <Minimization Criteria>
STEEPD> Minimization exiting with gradient tolerance ( 3.0000000) satisfied.

> <CHARMm Energy>
8.7079

> <Potential Energy>
8.7079

> <RMS Gradient>
0.02742

> <Bond Energy>
4.65587

> <Angle Energy>
5.15475

> <STRBend>
0.59919

> <Dihedral Energy>
-0.09062

> <OOPLane>
0.28067

> <Van der Waals Energy>
46.76763

> <Electrostatic Energy>
-48.6596

> <Hydrogen Bond Energy>
0

> <Solvation Free Energy>
0

> <HasGasteigerCharges>
true

> <REMARK99>
REMARK  99  MacroMolecule created from Mol2 file
REMARK  99  CHEMBL3763373
REMARK  99  PROTEIN
REMARK  99  GASTEIGER
REMARK  99
REMARK  99

$$$$
CHEMBL3335629
  SciTegic05292516403D

 49 51  0  0  0  0            999 V2000
    2.7098   -3.5420    0.2594 C   0  0
    2.7007   -4.8935    0.5779 C   0  0
    3.8701   -5.6650    0.4728 C   0  0
    5.0938   -5.1173    0.0533 C   0  0
    5.0951   -3.7315   -0.2565 C   0  0
    3.9050   -2.9644   -0.1599 C   0  0
    6.2993   -2.9361   -0.6455 C   0  0
    7.4482   -3.2308    0.0681 N   0  0
    6.1727   -2.0559   -1.4917 O   0  0
    8.7031   -2.5860   -0.0351 C   0  0
    6.2616   -5.9491   -0.1121 N   0  0
    6.4087   -7.2632    0.3603 C   0  0
    7.6364   -8.0628   -0.0176 C   0  0
    5.6078   -7.8270    1.1020 O   0  0
    7.6585   -9.4494    0.2969 C   0  0
    8.7711  -10.2737    0.0092 C   0  0
    9.8794   -9.6821   -0.6136 C   0  0
    9.8881   -8.3101   -0.9367 C   0  0
    8.7615   -7.5095   -0.6373 C   0  0
    9.7252   -3.0432    0.8032 C   0  0
   10.9990   -2.4482    0.7807 C   0  0
   11.2659   -1.3944   -0.0976 C   0  0
   10.2494   -0.9376   -0.9358 C   0  0
    8.9773   -1.5241   -0.9022 C   0  0
   12.0288   -3.0145    1.6831 C   0  0
   12.0067   -4.1835    2.0315 O   0  0
   12.9409   -2.1236    2.1235 O   0  0
   11.0810   -7.6942   -1.6410 C   0  0
    8.7929  -11.7590    0.3593 C   0  0
    9.7152  -12.0840    1.3143 F   0  0
    7.5984  -12.2282    0.8294 F   0  0
    9.0937  -12.5659   -0.7069 F   0  0
   11.3600   -6.4411   -1.1899 F   0  0
   10.8603   -7.5669   -2.9776 F   0  0
   12.2251   -8.4148   -1.5078 F   0  0
    1.8011   -2.9431    0.3371 H   0  0
    1.7833   -5.3793    0.9013 H   0  0
    3.7619   -6.7219    0.7012 H   0  0
    3.9163   -1.9000   -0.4034 H   0  0
    7.3602   -3.9238    0.8048 H   0  0
    7.0130   -5.5343   -0.6474 H   0  0
    6.7853   -9.9034    0.7765 H   0  0
   10.7507  -10.2984   -0.8507 H   0  0
    8.8089   -6.4540   -0.8915 H   0  0
    9.5475   -3.8699    1.4894 H   0  0
   12.2486   -0.9286   -0.1669 H   0  0
   10.4412   -0.1150   -1.6245 H   0  0
    8.2220   -1.1173   -1.5698 H   0  0
   12.7981   -1.1717    1.9373 H   0  0
  1  2  2  0
  1 36  1  0
  2  3  1  0
  2 37  1  0
  3  4  2  0
  3 38  1  0
  4  5  1  0
  4 11  1  0
  5  6  2  0
  5  7  1  0
  6  1  1  0
  6 39  1  0
  7  8  1  0
  7  9  2  0
  8 10  1  0
  8 40  1  0
 10 20  2  0
 11 12  1  0
 11 41  1  0
 12 13  1  0
 12 14  2  0
 13 15  2  0
 15 16  1  0
 15 42  1  0
 16 17  2  0
 16 29  1  0
 17 18  1  0
 17 43  1  0
 18 19  2  0
 18 28  1  0
 19 13  1  0
 19 44  1  0
 20 21  1  0
 20 45  1  0
 21 22  2  0
 21 25  1  0
 22 23  1  0
 22 46  1  0
 23 24  2  0
 23 47  1  0
 24 10  1  0
 24 48  1  0
 25 26  2  0
 25 27  1  0
 27 49  1  0
 28 33  1  0
 28 34  1  0
 28 35  1  0
 29 30  1  0
 29 31  1  0
 29 32  1  0
M  END
> <Name>
CHEMBL3335629

> <Clean Energy>
23.3494

> <chembl_id>
CHEMBL3335629

> <chembl_pref_name>
None

> <efficacy>
1.082621083

> <Forcefield>
MMFF

> <ForcefieldBase>
MMFF

> <ForcefieldFFML>
<?xml version="1.0" encoding="UTF-8"?>
<!DOCTYPE ffml SYSTEM "Ffml.dtd">
<ffml version="1.0">
<forcefield name="MMFF" derivedFrom="MMFF" base="MMFF">
<atomTypes>
<atomType
name="C100"
element="C"
mass="12.011"
annotation=""/>
<atomType
name="N101"
element="N"
mass="14.007"
annotation=""/>
<atomType
name="O102"
element="O"
mass="16"
annotation=""/>
<atomType
name="F103"
element="F"
mass="18.998"
annotation=""/>
<atomType
name="H104"
element="H"
mass="1.008"
annotation=""/>
</atomTypes>
<parameters>
</parameters>
</forcefield>
</ffml>

> <Initial Potential Energy>
246.87111

> <Initial RMS Gradient>
61.27768

> <Minimization Criteria>
CONJUG> Minimization exiting with gradient tolerance ( 0.0100000) satisfied.

> <CHARMm Energy>
95.31507

> <Potential Energy>
95.31507

> <RMS Gradient>
0.00709

> <Bond Energy>
11.2534

> <Angle Energy>
15.91116

> <STRBend>
2.42687

> <Dihedral Energy>
9.83546

> <OOPLane>
0.23268

> <Van der Waals Energy>
63.6934

> <Electrostatic Energy>
-8.0379

> <Hydrogen Bond Energy>
0

> <Solvation Free Energy>
0

> <HasGasteigerCharges>
true

> <REMARK99>
REMARK  99  MacroMolecule created from Mol2 file
REMARK  99  CHEMBL3335629
REMARK  99  PROTEIN
REMARK  99  GASTEIGER
REMARK  99
REMARK  99

$$$$
CHEMBL3597419
  SciTegic05292516403D

 70 74  0  0  0  0            999 V2000
   -1.2179    0.8631    0.3626 C   0  0
   -1.4515   -0.5063    0.3778 C   0  0
   -0.5090   -1.3974   -0.1312 C   0  0
   -0.0114    1.3827   -0.1199 C   0  0
    0.9639    0.5012   -0.6322 C   0  0
    0.6924   -0.8710   -0.6315 C   0  0
    1.7938   -1.4972   -1.1738 N   0  0
    2.7370   -0.5672   -1.5273 C   0  0
    2.2711    0.6862   -1.1869 C   0  0
    3.0110    1.9745   -1.3673 C   0  0
    4.1874    2.0841   -0.4190 C   0  0
    3.8442    2.0443    0.8928 O   0  0
    5.3525    2.2007   -0.7808 O   0  0
   -2.2227    1.6345    0.8779 O   0  0
   -2.4571    2.8318    0.1423 C   0  0
   -3.8528    3.3196    0.4848 C   0  0
   -4.1263    4.6352   -0.2169 C   0  0
   -5.3880    5.1293    0.2377 O   0  0
   -5.4230    6.4927    0.3644 C   0  0
   -6.1462    6.9906    1.4486 C   0  0
   -6.2006    8.3656    1.6861 C   0  0
   -5.5336    9.2455    0.8352 C   0  0
   -4.8204    8.7406   -0.2508 C   0  0
   -4.7936    7.3734   -0.5151 C   0  0
   -4.1631    9.5819   -1.1125 O   0  0
   -2.9861   10.1510   -0.6750 C   0  0
   -2.5499   11.2586   -1.4029 C   0  0
   -1.3558   11.9037   -1.0702 C   0  0
   -0.5788   11.4406   -0.0039 C   0  0
   -1.0085   10.3164    0.7097 C   0  0
   -2.2058    9.6757    0.3789 C   0  0
    1.9421   -2.9318   -1.3726 C   0  0
    4.0736   -3.9824   -0.5226 C   0  0
    2.7590   -3.5619   -0.2726 C   0  0
    2.2279   -3.7350    1.0151 C   0  0
    2.9914   -4.3254    2.0240 C   0  0
    4.2931   -4.7458    1.7597 C   0  0
    4.8346   -4.5708    0.4884 C   0  0
    0.7391   12.0771    0.3206 C   0  0
   -2.3906   -0.8849    0.7741 H   0  0
   -0.7141   -2.4629   -0.1287 H   0  0
    0.1845    2.4474   -0.0998 H   0  0
    3.6776   -0.8725   -1.9692 H   0  0
    3.3915    2.0364   -2.3940 H   0  0
    2.3643    2.8448   -1.2160 H   0  0
    2.8786    1.9455    1.0272 H   0  0
   -1.7181    3.5859    0.4375 H   0  0
   -2.3882    2.6542   -0.9392 H   0  0
   -4.6044    2.5705    0.2065 H   0  0
   -3.9571    3.4370    1.5709 H   0  0
   -3.3060    5.3266    0.0182 H   0  0
   -4.1735    4.4924   -1.3026 H   0  0
   -6.6562    6.3039    2.1197 H   0  0
   -6.7621    8.7483    2.5343 H   0  0
   -5.5727   10.3163    1.0146 H   0  0
   -4.2550    7.0179   -1.3877 H   0  0
   -3.1480   11.6264   -2.2333 H   0  0
   -1.0410   12.7683   -1.6510 H   0  0
   -0.3976    9.9045    1.5114 H   0  0
   -2.4811    8.7828    0.9340 H   0  0
    0.9523   -3.3955   -1.4333 H   0  0
    2.4140   -3.0753   -2.3525 H   0  0
    4.5187   -3.8527   -1.5068 H   0  0
    1.2176   -3.4043    1.2470 H   0  0
    2.5730   -4.4570    3.0187 H   0  0
    4.8885   -5.2079    2.5440 H   0  0
    5.8528   -4.8928    0.2845 H   0  0
    1.5448   11.5622   -0.2118 H   0  0
    0.9387   12.0327    1.3964 H   0  0
    0.7455   13.1335    0.0327 H   0  0
  1  2  2  0
  1 14  1  0
  2  3  1  0
  2 40  1  0
  3  6  2  0
  3 41  1  0
  4  1  1  0
  4 42  1  0
  5  4  2  0
  5  6  1  0
  6  7  1  0
  7  8  1  0
  7 32  1  0
  8  9  2  0
  8 43  1  0
  9  5  1  0
  9 10  1  0
 10 11  1  0
 10 44  1  0
 10 45  1  0
 11 12  1  0
 11 13  2  0
 12 46  1  0
 14 15  1  0
 15 16  1  0
 15 47  1  0
 15 48  1  0
 16 17  1  0
 16 49  1  0
 16 50  1  0
 17 18  1  0
 17 51  1  0
 17 52  1  0
 18 19  1  0
 19 20  2  0
 20 21  1  0
 20 53  1  0
 21 22  2  0
 21 54  1  0
 22 23  1  0
 22 55  1  0
 23 24  2  0
 23 25  1  0
 24 19  1  0
 24 56  1  0
 25 26  1  0
 26 27  2  0
 27 28  1  0
 27 57  1  0
 28 29  2  0
 28 58  1  0
 29 30  1  0
 29 39  1  0
 30 31  2  0
 30 59  1  0
 31 26  1  0
 31 60  1  0
 32 61  1  0
 32 62  1  0
 33 34  2  0
 33 63  1  0
 34 32  1  0
 34 35  1  0
 35 36  2  0
 35 64  1  0
 36 37  1  0
 36 65  1  0
 37 38  2  0
 37 66  1  0
 38 33  1  0
 38 67  1  0
 39 68  1  0
 39 69  1  0
 39 70  1  0
M  END
> <Name>
CHEMBL3597419

> <Clean Energy>
38.4482

> <chembl_id>
CHEMBL3597419

> <chembl_pref_name>
None

> <efficacy>
1.188

> <Forcefield>
MMFF

> <ForcefieldBase>
MMFF

> <ForcefieldFFML>
<?xml version="1.0" encoding="UTF-8"?>
<!DOCTYPE ffml SYSTEM "Ffml.dtd">
<ffml version="1.0">
<forcefield name="MMFF" derivedFrom="MMFF" base="MMFF">
<atomTypes>
<atomType
name="C100"
element="C"
mass="12.011"
annotation=""/>
<atomType
name="N101"
element="N"
mass="14.007"
annotation=""/>
<atomType
name="O102"
element="O"
mass="16"
annotation=""/>
<atomType
name="H103"
element="H"
mass="1.008"
annotation=""/>
</atomTypes>
<parameters>
</parameters>
</forcefield>
</ffml>

> <Initial Potential Energy>
323.38768

> <Initial RMS Gradient>
47.69435

> <Minimization Criteria>
STEEPD> Minimization exiting with gradient tolerance ( 3.0000000) satisfied.

> <CHARMm Energy>
93.00649

> <Potential Energy>
93.00649

> <RMS Gradient>
0.05609

> <Bond Energy>
6.18843

> <Angle Energy>
15.33473

> <STRBend>
-0.23041

> <Dihedral Energy>
11.18666

> <OOPLane>
0.08128

> <Van der Waals Energy>
80.26786

> <Electrostatic Energy>
-19.82206

> <Hydrogen Bond Energy>
0

> <Solvation Free Energy>
0

> <HasGasteigerCharges>
true

> <REMARK99>
REMARK  99  MacroMolecule created from Mol2 file
REMARK  99  CHEMBL3597419
REMARK  99  PROTEIN
REMARK  99  GASTEIGER
REMARK  99
REMARK  99

$$$$
CHEMBL3263246
  SciTegic05292516403D

 49 52  0  0  0  0            999 V2000
   -0.3767   -3.6320   -0.1849 C   0  0
   -0.6245   -4.9832   -0.4202 C   0  0
    0.4151   -5.9183   -0.3515 C   0  0
    1.7206   -5.5120   -0.0391 C   0  0
    1.9606   -4.1414    0.1939 C   0  0
    0.9174   -3.2070    0.1208 C   0  0
    3.3441   -3.6708    0.4743 C   0  0
    3.8021   -2.6812   -0.3755 N   0  0
    4.0000   -4.2583    1.3284 O   0  0
    5.0799   -2.0841   -0.3462 C   0  0
    2.8073   -6.4180    0.0601 N   0  0
    2.8543   -7.7100   -0.4142 C   0  0
    4.0900   -8.4946   -0.1213 C   0  0
    1.9595   -8.2683   -1.0430 O   0  0
    3.9813   -9.8930   -0.1095 C   0  0
    5.0966  -10.6884    0.1594 C   0  0
    5.3361   -7.9009    0.1186 C   0  0
    6.4650   -8.6937    0.3966 C   0  0
    6.3416  -10.1029    0.4200 C   0  0
    7.4673  -10.8916    0.7016 C   0  0
    8.7045  -10.3007    0.9606 C   0  0
    8.8286   -8.9143    0.9339 C   0  0
    7.7182   -8.1156    0.6525 C   0  0
    5.4943   -1.4002   -1.4913 C   0  0
    6.7519   -0.7899   -1.5366 C   0  0
    7.6026   -0.8184   -0.4247 C   0  0
    7.1782   -1.4730    0.7361 C   0  0
    5.9315   -2.1208    0.7635 C   0  0
    8.8872   -0.0739   -0.5228 C   0  0
    9.8635   -0.4425    0.3381 O   0  0
    9.0510    0.8348   -1.3234 O   0  0
   -1.1874   -2.9099   -0.2377 H   0  0
   -1.6324   -5.3247   -0.6515 H   0  0
    0.1601   -6.9631   -0.5216 H   0  0
    1.1024   -2.1539    0.3171 H   0  0
    3.2054   -2.4309   -1.1579 H   0  0
    3.6218   -6.0486    0.5460 H   0  0
    3.0237  -10.3801   -0.3052 H   0  0
    4.9809  -11.7726    0.1651 H   0  0
    5.4558   -6.8222    0.0743 H   0  0
    7.3871  -11.9778    0.7250 H   0  0
    9.5666  -10.9255    1.1841 H   0  0
    9.7900   -8.4496    1.1337 H   0  0
    7.8402   -7.0346    0.6394 H   0  0
    4.8572   -1.3378   -2.3707 H   0  0
    7.0589   -0.2713   -2.4435 H   0  0
    7.7697   -1.4529    1.6477 H   0  0
    5.6262   -2.6074    1.6871 H   0  0
    9.6778   -1.2961    0.7715 H   0  0
  1  2  2  0
  1 32  1  0
  2  3  1  0
  2 33  1  0
  3  4  2  0
  3 34  1  0
  4  5  1  0
  4 11  1  0
  5  6  2  0
  5  7  1  0
  6  1  1  0
  6 35  1  0
  7  8  1  0
  7  9  2  0
  8 10  1  0
  8 36  1  0
 10 24  2  0
 11 12  1  0
 11 37  1  0
 12 13  1  0
 12 14  2  0
 13 15  2  0
 15 16  1  0
 15 38  1  0
 16 19  2  0
 16 39  1  0
 17 13  1  0
 17 40  1  0
 18 17  2  0
 18 19  1  0
 19 20  1  0
 20 21  2  0
 20 41  1  0
 21 22  1  0
 21 42  1  0
 22 23  2  0
 22 43  1  0
 23 18  1  0
 23 44  1  0
 24 25  1  0
 24 45  1  0
 25 26  2  0
 25 46  1  0
 26 27  1  0
 26 29  1  0
 27 28  2  0
 27 47  1  0
 28 10  1  0
 28 48  1  0
 29 30  1  0
 29 31  2  0
 30 49  1  0
M  END
> <Name>
CHEMBL3263246

> <Clean Energy>
-0.409193

> <chembl_id>
CHEMBL3263246

> <chembl_pref_name>
None

> <efficacy>
6.068376068

> <Forcefield>
MMFF

> <ForcefieldBase>
MMFF

> <ForcefieldFFML>
<?xml version="1.0" encoding="UTF-8"?>
<!DOCTYPE ffml SYSTEM "Ffml.dtd">
<ffml version="1.0">
<forcefield name="MMFF" derivedFrom="MMFF" base="MMFF">
<atomTypes>
<atomType
name="C100"
element="C"
mass="12.011"
annotation=""/>
<atomType
name="N101"
element="N"
mass="14.007"
annotation=""/>
<atomType
name="O102"
element="O"
mass="16"
annotation=""/>
<atomType
name="H103"
element="H"
mass="1.008"
annotation=""/>
</atomTypes>
<parameters>
</parameters>
</forcefield>
</ffml>

> <Initial Potential Energy>
243.41786

> <Initial RMS Gradient>
78.67826

> <Minimization Criteria>
STEEPD> Minimization exiting with gradient tolerance ( 3.0000000) satisfied.

> <CHARMm Energy>
60.99609

> <Potential Energy>
60.99609

> <RMS Gradient>
0.06369

> <Bond Energy>
8.01872

> <Angle Energy>
13.07267

> <STRBend>
1.3978

> <Dihedral Energy>
13.54969

> <OOPLane>
0.36404

> <Van der Waals Energy>
75.84295

> <Electrostatic Energy>
-51.24978

> <Hydrogen Bond Energy>
0

> <Solvation Free Energy>
0

> <HasGasteigerCharges>
true

> <REMARK99>
REMARK  99  MacroMolecule created from Mol2 file
REMARK  99  CHEMBL3263246
REMARK  99  PROTEIN
REMARK  99  GASTEIGER
REMARK  99
REMARK  99

$$$$
CHEMBL4170881
  SciTegic05292516403D

 74 77  0  0  0  0            999 V2000
    5.8694  -28.0715   -0.9255 C   0  0
    5.6072  -29.4516   -0.8406 C   0  0
    6.6817  -30.3544   -0.8857 C   0  0
    7.1834  -27.5871   -1.0395 C   0  0
    8.2319  -28.4973   -1.0721 C   0  0
    7.9755  -29.8654   -0.9925 C   0  0
    9.4800  -30.8023   -1.0271 S   0  0
   10.4499  -29.3257   -1.1286 C   0  0
    9.6088  -28.2158   -1.1718 N   0  0
   11.6732  -29.3209   -1.1474 O   0  0
   10.1802  -26.8869   -1.2328 C   0  0
   10.7415  -26.4160    0.1146 C   0  0
   11.4082  -25.1598   -0.0799 O   0  0
   12.7487  -25.2151    0.1928 C   0  0
   13.2317  -25.4259    1.4838 C   0  0
   14.6104  -25.3989    1.7267 C   0  0
   15.5127  -25.1451    0.6834 C   0  0
   15.0098  -24.9296   -0.6083 C   0  0
   13.6335  -24.9529   -0.8496 C   0  0
   17.0048  -25.0827    0.9459 C   0  0
   17.7030  -26.4511    0.9390 C   0  0  2  0  0  0
   19.1458  -26.2753    1.4684 C   0  0
   17.7532  -26.9666   -0.4054 O   0  0
   16.9186  -28.1131   -0.5764 C   0  0
   16.9638  -28.5188   -2.0358 C   0  0
   20.1214  -26.5140    0.5223 N   0  0
   19.4007  -25.9385    2.6224 O   0  0
    4.2513  -30.0160   -0.7405 C   0  0
    3.2387  -29.5168   -0.0092 C   0  0
    1.9734  -30.2561    0.1729 C   0  0
    0.7365  -29.5963    0.2049 C   0  0
   -0.4586  -30.3066    0.4149 C   0  0
   -0.4066  -31.6930    0.6019 C   0  0
    0.8195  -32.3610    0.5952 C   0  0
    1.9948  -31.6386    0.3933 C   0  0
    1.0200  -33.7017    0.7763 O   0  0
   -1.6027  -29.5457    0.4189 O   0  0
   -0.1338  -34.5083    0.9639 C   0  0
   -2.8376  -30.2194    0.6379 C   0  0
   21.5320  -26.4078    0.7944 C   0  0
    5.0455  -27.3599   -0.9145 H   0  0
    6.5097  -31.4260   -0.8229 H   0  0
    7.3576  -26.5170   -1.1037 H   0  0
   11.0029  -26.9103   -1.9599 H   0  0
    9.4635  -26.1621   -1.6319 H   0  0
    9.9219  -26.2538    0.8239 H   0  0
   11.3980  -27.1813    0.5481 H   0  0
   12.5446  -25.5865    2.3090 H   0  0
   14.9762  -25.5513    2.7406 H   0  0
   15.6907  -24.7298   -1.4336 H   0  0
   13.2561  -24.7623   -1.8500 H   0  0
   17.4668  -24.4299    0.1929 H   0  0
   17.1608  -24.5787    1.9087 H   0  0
   17.2052  -27.1585    1.6152 H   0  0
   17.2933  -28.9305    0.0493 H   0  0
   15.8882  -27.8836   -0.2873 H   0  0
   16.3437  -29.4016   -2.2149 H   0  0
   17.9913  -28.7395   -2.3433 H   0  0
   16.6088  -27.7022   -2.6731 H   0  0
   19.7745  -26.8312   -0.3825 H   0  0
    4.1207  -30.9599   -1.2690 H   0  0
    3.3335  -28.5825    0.5367 H   0  0
    0.7049  -28.5190    0.0583 H   0  0
   -1.3178  -32.2525    0.7604 H   0  0
    2.9423  -32.1738    0.4215 H   0  0
    0.1971  -35.5448    1.0808 H   0  0
   -0.7924  -34.4655    0.0901 H   0  0
   -0.6690  -34.2249    1.8762 H   0  0
   -3.6350  -29.4704    0.6152 H   0  0
   -2.8563  -30.6971    1.6229 H   0  0
   -3.0371  -30.9436   -0.1587 H   0  0
   21.8711  -27.3473    1.2379 H   0  0
   21.7248  -25.5854    1.4881 H   0  0
   22.0554  -26.2339   -0.1484 H   0  0
  1  2  2  0
  1 41  1  0
  2  3  1  0
  2 28  1  0
  3  6  2  0
  3 42  1  0
  4  1  1  0
  4 43  1  0
  5  4  2  0
  5  6  1  0
  6  7  1  0
  7  8  1  0
  8  9  1  0
  8 10  2  0
  9  5  1  0
  9 11  1  0
 11 12  1  0
 11 44  1  0
 11 45  1  0
 12 13  1  0
 12 46  1  0
 12 47  1  0
 13 14  1  0
 14 15  2  0
 15 16  1  0
 15 48  1  0
 16 17  2  0
 16 49  1  0
 17 18  1  0
 17 20  1  0
 18 19  2  0
 18 50  1  0
 19 14  1  0
 19 51  1  0
 20 21  1  0
 20 52  1  0
 20 53  1  0
 21 22  1  0
 21 23  1  0
 21 54  1  0
 22 26  1  0
 22 27  2  0
 23 24  1  0
 24 25  1  0
 24 55  1  0
 24 56  1  0
 25 57  1  0
 25 58  1  0
 25 59  1  0
 26 40  1  0
 26 60  1  0
 28 29  2  0
 28 61  1  0
 29 30  1  0
 29 62  1  0
 30 31  2  0
 31 32  1  0
 31 63  1  0
 32 33  2  0
 32 37  1  0
 33 34  1  0
 33 64  1  0
 34 35  2  0
 34 36  1  0
 35 30  1  0
 35 65  1  0
 36 38  1  0
 37 39  1  0
 38 66  1  0
 38 67  1  0
 38 68  1  0
 39 69  1  0
 39 70  1  0
 39 71  1  0
 40 72  1  0
 40 73  1  0
 40 74  1  0
M  END
> <Name>
CHEMBL4170881

> <Clean Energy>
33.7766

> <chembl_id>
CHEMBL4170881

> <chembl_pref_name>
None

> <efficacy>
1.18

> <Forcefield>
MMFF

> <ForcefieldBase>
MMFF

> <ForcefieldFFML>
<?xml version="1.0" encoding="UTF-8"?>
<!DOCTYPE ffml SYSTEM "Ffml.dtd">
<ffml version="1.0">
<forcefield name="MMFF" derivedFrom="MMFF" base="MMFF">
<atomTypes>
<atomType
name="C100"
element="C"
mass="12.011"
annotation=""/>
<atomType
name="S101"
element="S"
mass="32.066"
annotation=""/>
<atomType
name="N102"
element="N"
mass="14.007"
annotation=""/>
<atomType
name="O103"
element="O"
mass="16"
annotation=""/>
<atomType
name="H104"
element="H"
mass="1.008"
annotation=""/>
</atomTypes>
<parameters>
</parameters>
</forcefield>
</ffml>

> <Initial Potential Energy>
196.85694

> <Initial RMS Gradient>
28.83635

> <Minimization Criteria>
CONJUG> Minimization exiting with gradient tolerance ( 0.0100000) satisfied.

> <CHARMm Energy>
63.65487

> <Potential Energy>
63.65487

> <RMS Gradient>
0.00877

> <Bond Energy>
7.58992

> <Angle Energy>
31.03294

> <STRBend>
0.40808

> <Dihedral Energy>
12.91969

> <OOPLane>
0.14129

> <Van der Waals Energy>
75.62303

> <Electrostatic Energy>
-64.06008

> <Hydrogen Bond Energy>
0

> <Solvation Free Energy>
0

> <HasGasteigerCharges>
true

> <REMARK99>
REMARK  99  MacroMolecule created from Mol2 file
REMARK  99  CHEMBL4170881
REMARK  99  PROTEIN
REMARK  99  GASTEIGER
REMARK  99
REMARK  99

$$$$
CHEMBL398804
  SciTegic05292516403D

 77 79  0  0  0  0            999 V2000
    3.1411  -26.6353   -1.1907 C   0  0
    2.4023  -27.4691   -0.3547 C   0  0
    2.9479  -27.9094    0.8489 C   0  0
    4.2408  -27.5298    1.2109 C   0  0
    4.9992  -26.6930    0.3768 C   0  0
    4.4296  -26.2445   -0.8258 C   0  0
    6.4059  -26.2869    0.7819 C   0  0  1  0  0  0
    7.4349  -26.8523   -0.1989 C   0  0
    6.5038  -24.8371    0.7699 O   0  0
    6.0142  -24.0769    1.7840 C   0  0
    5.6410  -22.8191    1.4200 N   0  0
    5.8882  -24.5673    3.3670 S   0  0
    5.6196  -22.2978    0.0715 C   0  0
    4.9221  -20.9652    0.0213 C   0  0
    8.8614  -26.6071    0.3012 C   0  0
    9.7758  -27.7124   -0.1550 C   0  0
   10.6675  -27.5237   -1.2149 C   0  0
   11.4855  -28.5710   -1.6335 C   0  0
   11.4101  -29.8176   -1.0000 C   0  0
   10.5020  -30.0141    0.0460 C   0  0
    9.6981  -28.9648    0.4709 C   0  0
   12.3532  -30.9267   -1.3794 C   0  0
   13.4541  -31.0814   -0.3319 C   0  0  1  0  0  0
   14.1736  -32.3939   -0.6068 C   0  0
   15.4268  -32.1851   -1.0877 O   0  0
   13.7110  -33.5121   -0.4394 O   0  0
   14.4611  -30.0466   -0.4900 O   0  0
   14.3985  -29.0821    0.5663 C   0  0
   15.4045  -27.9889    0.2665 C   0  0
    5.6412  -19.7729    0.1402 C   0  0
    4.9850  -18.5351    0.1231 C   0  0
    3.5890  -18.4484   -0.0044 C   0  0
    2.8777  -19.6593   -0.1098 C   0  0
    3.5309  -20.8966   -0.0935 C   0  0
    2.8370  -17.1051   -0.0279 C   0  0
    2.0700  -16.9638   -1.3604 C   0  0
    3.7585  -15.8713    0.1022 C   0  0
    1.8332  -17.0508    1.1440 C   0  0
    2.7076  -26.2822   -2.1233 H   0  0
    1.3963  -27.7736   -0.6359 H   0  0
    2.3586  -28.5461    1.5061 H   0  0
    4.6513  -27.8940    2.1512 H   0  0
    4.9862  -25.5816   -1.4846 H   0  0
    6.6387  -26.6829    1.7765 H   0  0
    7.2412  -27.9248   -0.3325 H   0  0
    7.3337  -26.3910   -1.1900 H   0  0
    5.2662  -22.2306    2.1573 H   0  0
    6.6547  -22.2137   -0.2790 H   0  0
    5.1184  -23.0195   -0.5836 H   0  0
    9.2218  -25.6326   -0.0505 H   0  0
    8.9022  -26.5658    1.3972 H   0  0
   10.7313  -26.5612   -1.7169 H   0  0
   12.1961  -28.4047   -2.4417 H   0  0
   10.4274  -30.9798    0.5422 H   0  0
    8.9974  -29.1235    1.2881 H   0  0
   11.7736  -31.8528   -1.4857 H   0  0
   12.7897  -30.7219   -2.3656 H   0  0
   13.0914  -31.1208    0.7025 H   0  0
   15.5694  -31.2069   -1.1096 H   0  0
   13.3964  -28.6518    0.6417 H   0  0
   14.6516  -29.5695    1.5141 H   0  0
   15.4051  -27.2319    1.0556 H   0  0
   15.1728  -27.5045   -0.6879 H   0  0
   16.4127  -28.4064    0.1757 H   0  0
    6.7239  -19.7983    0.2498 H   0  0
    5.6032  -17.6459    0.2143 H   0  0
    1.7938  -19.6574   -0.2042 H   0  0
    2.9458  -21.8117   -0.1680 H   0  0
    1.5523  -15.9991   -1.4181 H   0  0
    1.3101  -17.7428   -1.4858 H   0  0
    2.7516  -17.0282   -2.2168 H   0  0
    3.1784  -14.9409    0.0808 H   0  0
    4.4811  -15.8188   -0.7205 H   0  0
    4.3156  -15.8815    1.0463 H   0  0
    1.3084  -16.0886    1.1707 H   0  0
    2.3427  -17.1798    2.1062 H   0  0
    1.0674  -17.8307    1.0703 H   0  0
  1  2  2  0
  1 39  1  0
  2  3  1  0
  2 40  1  0
  3  4  2  0
  3 41  1  0
  4  5  1  0
  4 42  1  0
  5  6  2  0
  5  7  1  0
  6  1  1  0
  6 43  1  0
  7  8  1  0
  7  9  1  0
  7 44  1  0
  8 15  1  0
  8 45  1  0
  8 46  1  0
  9 10  1  0
 10 11  1  0
 10 12  2  0
 11 13  1  0
 11 47  1  0
 13 14  1  0
 13 48  1  0
 13 49  1  0
 14 30  2  0
 15 16  1  0
 15 50  1  0
 15 51  1  0
 16 17  2  0
 17 18  1  0
 17 52  1  0
 18 19  2  0
 18 53  1  0
 19 20  1  0
 19 22  1  0
 20 21  2  0
 20 54  1  0
 21 16  1  0
 21 55  1  0
 22 23  1  0
 22 56  1  0
 22 57  1  0
 23 24  1  0
 23 27  1  0
 23 58  1  0
 24 25  1  0
 24 26  2  0
 25 59  1  0
 27 28  1  0
 28 29  1  0
 28 60  1  0
 28 61  1  0
 29 62  1  0
 29 63  1  0
 29 64  1  0
 30 31  1  0
 30 65  1  0
 31 32  2  0
 31 66  1  0
 32 33  1  0
 32 35  1  0
 33 34  2  0
 33 67  1  0
 34 14  1  0
 34 68  1  0
 35 36  1  0
 35 37  1  0
 35 38  1  0
 36 69  1  0
 36 70  1  0
 36 71  1  0
 37 72  1  0
 37 73  1  0
 37 74  1  0
 38 75  1  0
 38 76  1  0
 38 77  1  0
M  END
> <Name>
CHEMBL398804

> <Clean Energy>
41.020699

> <chembl_id>
CHEMBL398804

> <chembl_pref_name>
None

> <efficacy>
1.87

> <Forcefield>
MMFF

> <ForcefieldBase>
MMFF

> <ForcefieldFFML>
<?xml version="1.0" encoding="UTF-8"?>
<!DOCTYPE ffml SYSTEM "Ffml.dtd">
<ffml version="1.0">
<forcefield name="MMFF" derivedFrom="MMFF" base="MMFF">
<atomTypes>
<atomType
name="C100"
element="C"
mass="12.011"
annotation=""/>
<atomType
name="O101"
element="O"
mass="16"
annotation=""/>
<atomType
name="N102"
element="N"
mass="14.007"
annotation=""/>
<atomType
name="S103"
element="S"
mass="32.066"
annotation=""/>
<atomType
name="H104"
element="H"
mass="1.008"
annotation=""/>
</atomTypes>
<parameters>
</parameters>
</forcefield>
</ffml>

> <Initial Potential Energy>
211.33931

> <Initial RMS Gradient>
28.25578

> <Minimization Criteria>
CONJUG> Minimization exiting with gradient tolerance ( 0.0100000) satisfied.

> <CHARMm Energy>
49.29332

> <Potential Energy>
49.29332

> <RMS Gradient>
0.00934

> <Bond Energy>
8.9376

> <Angle Energy>
11.47701

> <STRBend>
0.80813

> <Dihedral Energy>
6.15862

> <OOPLane>
0.08792

> <Van der Waals Energy>
81.3181

> <Electrostatic Energy>
-59.49405

> <Hydrogen Bond Energy>
0

> <Solvation Free Energy>
0

> <HasGasteigerCharges>
true

> <REMARK99>
REMARK  99  MacroMolecule created from Mol2 file
REMARK  99  CHEMBL398804
REMARK  99  PROTEIN
REMARK  99  GASTEIGER
REMARK  99
REMARK  99

$$$$
CHEMBL4167709
  SciTegic05292516403D

 46 49  0  0  0  0            999 V2000
    0.0481   -3.7543   -0.2488 C   0  0
    1.2067   -4.1606   -0.8670 O   0  0
    2.3599   -3.4305   -0.6526 C   0  0
    3.5559   -4.1580   -0.7554 C   0  0
    3.5899   -1.3657   -0.2801 C   0  0
    2.3759   -2.0503   -0.4331 C   0  0
    4.7928   -2.0823   -0.3694 C   0  0
    4.7596   -3.4522   -0.6102 C   0  0
    6.0862   -3.8159   -0.6659 N   0  0
    6.8544   -2.6907   -0.4427 C   0  0
    6.0839   -1.6324   -0.2669 N   0  0
    6.5860   -5.1460   -0.9230 C   0  0
    8.3518   -2.6736   -0.4575 C   0  0
    8.8099   -3.6415    0.4897 O   0  0
   10.1613   -3.8119    0.6047 C   0  0
   10.5470   -4.7964    1.5213 C   0  0
   11.8952   -5.0941    1.7314 C   0  0
   12.8760   -4.3975    1.0295 C   0  0
   12.4958   -3.3966    0.1281 C   0  0
   11.1414   -3.1114   -0.0966 C   0  0
   -0.0493   -3.6281    1.1384 C   0  0
   -1.2678   -3.2648    1.7159 C   0  0
   -2.3873   -3.0467    0.9103 C   0  0
   -2.2931   -3.1973   -0.4738 C   0  0
   -1.0749   -3.5582   -1.0537 C   0  0
   13.5072   -2.6422   -0.6443 C   0  0
   14.5599   -2.2520    0.1034 O   0  0
   13.3723   -2.3754   -1.8249 O   0  0
    3.5351   -5.2242   -0.9519 H   0  0
    3.6077   -0.2939   -0.1129 H   0  0
    1.4517   -1.4810   -0.3912 H   0  0
    7.4844   -5.0837   -1.5418 H   0  0
    5.8326   -5.7256   -1.4611 H   0  0
    6.8094   -5.6180    0.0367 H   0  0
    8.7037   -2.9186   -1.4666 H   0  0
    8.7022   -1.6747   -0.1713 H   0  0
    9.7843   -5.3451    2.0712 H   0  0
   12.1737   -5.8777    2.4323 H   0  0
   13.9220   -4.6605    1.1684 H   0  0
   10.8923   -2.3410   -0.8210 H   0  0
    0.8143   -3.8161    1.7703 H   0  0
   -1.3482   -3.1595    2.7950 H   0  0
   -3.3380   -2.7694    1.3621 H   0  0
   -3.1708   -3.0412   -1.0974 H   0  0
   -1.0021   -3.6850   -2.1304 H   0  0
   14.4458   -2.3863    1.0632 H   0  0
  1  2  1  0
  1 21  2  0
  2  3  1  0
  3  4  2  0
  4  8  1  0
  4 29  1  0
  5  6  2  0
  5 30  1  0
  6  3  1  0
  6 31  1  0
  7  5  1  0
  7  8  2  0
  8  9  1  0
  9 10  1  0
  9 12  1  0
 10 11  2  0
 10 13  1  0
 11  7  1  0
 12 32  1  0
 12 33  1  0
 12 34  1  0
 13 14  1  0
 13 35  1  0
 13 36  1  0
 14 15  1  0
 15 16  2  0
 16 17  1  0
 16 37  1  0
 17 18  2  0
 17 38  1  0
 18 19  1  0
 18 39  1  0
 19 20  2  0
 19 26  1  0
 20 15  1  0
 20 40  1  0
 21 22  1  0
 21 41  1  0
 22 23  2  0
 22 42  1  0
 23 24  1  0
 23 43  1  0
 24 25  2  0
 24 44  1  0
 25  1  1  0
 25 45  1  0
 26 27  1  0
 26 28  2  0
 27 46  1  0
M  END
> <Name>
CHEMBL4167709

> <Clean Energy>
31.166

> <chembl_id>
CHEMBL4167709

> <chembl_pref_name>
None

> <efficacy>
0.9

> <Forcefield>
MMFF

> <ForcefieldBase>
MMFF

> <ForcefieldFFML>
<?xml version="1.0" encoding="UTF-8"?>
<!DOCTYPE ffml SYSTEM "Ffml.dtd">
<ffml version="1.0">
<forcefield name="MMFF" derivedFrom="MMFF" base="MMFF">
<atomTypes>
<atomType
name="C100"
element="C"
mass="12.011"
annotation=""/>
<atomType
name="O101"
element="O"
mass="16"
annotation=""/>
<atomType
name="N102"
element="N"
mass="14.007"
annotation=""/>
<atomType
name="H103"
element="H"
mass="1.008"
annotation=""/>
</atomTypes>
<parameters>
</parameters>
</forcefield>
</ffml>

> <Initial Potential Energy>
189.21885

> <Initial RMS Gradient>
45.88029

> <Minimization Criteria>
STEEPD> Minimization exiting with gradient tolerance ( 3.0000000) satisfied.

> <CHARMm Energy>
67.08307

> <Potential Energy>
67.08307

> <RMS Gradient>
0.11589

> <Bond Energy>
4.79249

> <Angle Energy>
16.47136

> <STRBend>
-0.16033

> <Dihedral Energy>
9.80984

> <OOPLane>
0.13868

> <Van der Waals Energy>
56.07492

> <Electrostatic Energy>
-20.0439

> <Hydrogen Bond Energy>
0

> <Solvation Free Energy>
0

> <HasGasteigerCharges>
true

> <REMARK99>
REMARK  99  MacroMolecule created from Mol2 file
REMARK  99  CHEMBL4167709
REMARK  99  PROTEIN
REMARK  99  GASTEIGER
REMARK  99
REMARK  99

$$$$
CHEMBL4175074
  SciTegic05292516403D

 56 59  0  0  0  0            999 V2000
   33.7632  -12.9108    0.4708 C   0  0
   34.7692  -13.7123    0.9743 O   0  0
   36.0052  -13.1034    1.0791 C   0  0
   37.0672  -13.6664    0.3599 C   0  0
   37.3798  -11.2611    1.8508 C   0  0
   36.1662  -11.9509    1.8545 C   0  0
   38.4253  -11.7510    1.0568 C   0  0
   38.2688  -12.9454    0.3540 C   0  0
   39.4845  -13.1273   -0.2634 N   0  0
   40.2502  -12.0042   -0.0326 C   0  0
   39.6508  -11.1942    0.8167 N   0  0
   39.8970  -14.2730   -1.0412 C   0  0
   41.5563  -11.7410   -0.6941 C   0  0
   42.5100  -12.6302   -0.0950 O   0  0
   43.7434  -12.4524   -0.6623 C   0  0
   44.0534  -13.2484   -1.7717 C   0  0
   45.2832  -13.1084   -2.4137 C   0  0
   46.2075  -12.1780   -1.9458 C   0  0
   45.9116  -11.4038   -0.8217 C   0  0
   44.6851  -11.5494   -0.1542 C   0  0
   33.9502  -12.0520   -0.6148 C   0  0
   32.9039  -11.2300   -1.0597 C   0  0
   31.6476  -11.2888   -0.4200 C   0  0
   31.4598  -12.1763    0.6649 C   0  0
   32.5213  -12.9919    1.0903 C   0  0
   30.6327  -10.4186   -0.7933 N   0  0
   33.1536  -10.2901   -2.2083 C   0  0
   30.1427  -12.2691    1.3912 C   0  0
   44.4731  -10.7118    1.0591 C   0  0
   43.5858  -11.2117    2.1680 C   0  0
   45.0530   -9.6289    1.1438 O   0  0
   36.9256  -14.5741   -0.2152 H   0  0
   37.5003  -10.3407    2.4119 H   0  0
   35.3343  -11.5560    2.4302 H   0  0
   40.0854  -13.9473   -2.0672 H   0  0
   39.1114  -15.0313   -1.0368 H   0  0
   40.8022  -14.6905   -0.5938 H   0  0
   41.4779  -11.9178   -1.7738 H   0  0
   41.8487  -10.6971   -0.5273 H   0  0
   43.3352  -13.9764   -2.1391 H   0  0
   45.5223  -13.7233   -3.2784 H   0  0
   47.1658  -12.0599   -2.4468 H   0  0
   46.6521  -10.6913   -0.4583 H   0  0
   34.9228  -11.9995   -1.1022 H   0  0
   32.3919  -13.6750    1.9259 H   0  0
   30.6641   -9.8942   -1.6558 H   0  0
   29.7239  -10.4764   -0.3515 H   0  0
   32.4728  -10.5127   -3.0362 H   0  0
   34.1757  -10.3833   -2.5908 H   0  0
   33.0157   -9.2526   -1.8874 H   0  0
   30.1673  -13.0345    2.1744 H   0  0
   29.3431  -12.5402    0.6943 H   0  0
   29.9060  -11.3136    1.8702 H   0  0
   42.5656  -10.8510    2.0222 H   0  0
   43.9658  -10.8301    3.1209 H   0  0
   43.6051  -12.3026    2.2309 H   0  0
  1  2  1  0
  1 21  2  0
  2  3  1  0
  3  4  2  0
  4  8  1  0
  4 32  1  0
  5  6  2  0
  5 33  1  0
  6  3  1  0
  6 34  1  0
  7  5  1  0
  7  8  2  0
  8  9  1  0
  9 10  1  0
  9 12  1  0
 10 11  2  0
 10 13  1  0
 11  7  1  0
 12 35  1  0
 12 36  1  0
 12 37  1  0
 13 14  1  0
 13 38  1  0
 13 39  1  0
 14 15  1  0
 15 16  2  0
 16 17  1  0
 16 40  1  0
 17 18  2  0
 17 41  1  0
 18 19  1  0
 18 42  1  0
 19 20  2  0
 19 43  1  0
 20 15  1  0
 20 29  1  0
 21 22  1  0
 21 44  1  0
 22 23  2  0
 22 27  1  0
 23 24  1  0
 23 26  1  0
 24 25  2  0
 24 28  1  0
 25  1  1  0
 25 45  1  0
 26 46  1  0
 26 47  1  0
 27 48  1  0
 27 49  1  0
 27 50  1  0
 28 51  1  0
 28 52  1  0
 28 53  1  0
 29 30  1  0
 29 31  2  0
 30 54  1  0
 30 55  1  0
 30 56  1  0
M  END
> <Name>
CHEMBL4175074

> <Clean Energy>
46.8466

> <chembl_id>
CHEMBL4175074

> <chembl_pref_name>
None

> <efficacy>
0.96

> <Forcefield>
MMFF

> <ForcefieldBase>
MMFF

> <ForcefieldFFML>
<?xml version="1.0" encoding="UTF-8"?>
<!DOCTYPE ffml SYSTEM "Ffml.dtd">
<ffml version="1.0">
<forcefield name="MMFF" derivedFrom="MMFF" base="MMFF">
<atomTypes>
<atomType
name="C100"
element="C"
mass="12.011"
annotation=""/>
<atomType
name="O101"
element="O"
mass="16"
annotation=""/>
<atomType
name="N102"
element="N"
mass="14.007"
annotation=""/>
<atomType
name="H103"
element="H"
mass="1.008"
annotation=""/>
</atomTypes>
<parameters>
</parameters>
</forcefield>
</ffml>

> <Initial Potential Energy>
253.76391

> <Initial RMS Gradient>
44.88708

> <Minimization Criteria>
STEEPD> Minimization exiting with gradient tolerance ( 3.0000000) satisfied.

> <CHARMm Energy>
89.43118

> <Potential Energy>
89.43118

> <RMS Gradient>
0.02366

> <Bond Energy>
6.11135

> <Angle Energy>
13.63642

> <STRBend>
0.10012

> <Dihedral Energy>
26.57805

> <OOPLane>
0.52047

> <Van der Waals Energy>
63.38683

> <Electrostatic Energy>
-20.90206

> <Hydrogen Bond Energy>
0

> <Solvation Free Energy>
0

> <HasGasteigerCharges>
true

> <REMARK99>
REMARK  99  MacroMolecule created from Mol2 file
REMARK  99  CHEMBL4175074
REMARK  99  PROTEIN
REMARK  99  GASTEIGER
REMARK  99
REMARK  99

$$$$
CHEMBL4746369
  SciTegic05292516403D

 54 57  0  0  0  0            999 V2000
   30.6626  -23.2655   -0.6365 C   0  0
   30.5476  -24.6380   -0.3851 C   0  0
   31.6905  -25.4723   -0.2392 C   0  0
   31.9165  -22.6660   -0.7456 C   0  0
   33.0612  -23.4642   -0.6397 C   0  0
   32.9481  -24.8353   -0.4064 C   0  0
   34.2658  -25.2670   -0.4227 N   0  0
   35.0836  -24.1725   -0.6267 C   0  0
   34.3660  -23.0758   -0.7569 N   0  0
   34.7179  -26.6323   -0.2916 C   0  0
   36.5734  -24.2210   -0.7464 C   0  0
   37.0992  -24.7075    0.4923 O   0  0
   38.4425  -24.5488    0.6944 C   0  0
   38.8642  -24.7616    2.0116 C   0  0
   40.2084  -24.6288    2.3654 C   0  0
   41.1465  -24.2772    1.3985 C   0  0
   40.7273  -24.0625    0.0809 C   0  0
   39.3825  -24.2158   -0.2800 C   0  0
   41.7020  -23.6958   -0.9681 C   0  0
   42.5150  -22.6876   -0.5872 O   0  0
   41.7314  -24.2274   -2.0627 O   0  0
   29.3168  -25.2791   -0.3493 O   0  0
   28.2141  -24.5616    0.0397 C   0  0
   28.0913  -24.0780    1.3396 C   0  0
   26.9303  -23.4011    1.7046 C   0  0
   25.9215  -23.2375    0.7585 C   0  0
   26.0201  -23.7173   -0.5055 N   0  0
   27.1533  -24.3838   -0.8483 C   0  0
   27.2247  -24.9192   -2.2475 C   0  0
   24.6588  -22.5126    1.1212 C   0  0
   31.5151  -26.9445    0.0150 C   0  0
   29.7845  -22.6402   -0.7723 H   0  0
   32.0195  -21.6049   -0.9440 H   0  0
   35.7544  -26.7287   -0.6188 H   0  0
   34.1024  -27.2720   -0.9280 H   0  0
   34.6347  -26.9212    0.7587 H   0  0
   36.8643  -24.8825   -1.5703 H   0  0
   36.9362  -23.2051   -0.9467 H   0  0
   38.1350  -25.0326    2.7728 H   0  0
   40.5194  -24.8081    3.3920 H   0  0
   42.1967  -24.2016    1.6704 H   0  0
   39.1087  -24.0707   -1.3211 H   0  0
   42.2280  -22.2480    0.2366 H   0  0
   28.8882  -24.2291    2.0617 H   0  0
   26.8142  -23.0137    2.7117 H   0  0
   28.0561  -24.4578   -2.7891 H   0  0
   26.3017  -24.7008   -2.7944 H   0  0
   27.3594  -26.0052   -2.2332 H   0  0
   23.9790  -22.4622    0.2644 H   0  0
   24.8875  -21.4894    1.4355 H   0  0
   24.1449  -23.0334    1.9350 H   0  0
   32.3056  -27.3265    0.6656 H   0  0
   31.5293  -27.4909   -0.9327 H   0  0
   30.5749  -27.1622    0.5317 H   0  0
  1  2  2  0
  1 32  1  0
  2  3  1  0
  2 22  1  0
  3  6  2  0
  3 31  1  0
  4  1  1  0
  4 33  1  0
  5  4  2  0
  5  6  1  0
  6  7  1  0
  7  8  1  0
  7 10  1  0
  8  9  2  0
  8 11  1  0
  9  5  1  0
 10 34  1  0
 10 35  1  0
 10 36  1  0
 11 12  1  0
 11 37  1  0
 11 38  1  0
 12 13  1  0
 13 14  2  0
 14 15  1  0
 14 39  1  0
 15 16  2  0
 15 40  1  0
 16 17  1  0
 16 41  1  0
 17 18  2  0
 17 19  1  0
 18 13  1  0
 18 42  1  0
 19 20  1  0
 19 21  2  0
 20 43  1  0
 22 23  1  0
 23 24  2  0
 24 25  1  0
 24 44  1  0
 25 26  2  0
 25 45  1  0
 26 27  1  0
 26 30  1  0
 27 28  2  0
 28 23  1  0
 28 29  1  0
 29 46  1  0
 29 47  1  0
 29 48  1  0
 30 49  1  0
 30 50  1  0
 30 51  1  0
 31 52  1  0
 31 53  1  0
 31 54  1  0
M  END
> <Name>
CHEMBL4746369

> <Clean Energy>
37.0135

> <chembl_id>
CHEMBL4746369

> <chembl_pref_name>
None

> <efficacy>
0.92

> <Forcefield>
MMFF

> <ForcefieldBase>
MMFF

> <ForcefieldFFML>
<?xml version="1.0" encoding="UTF-8"?>
<!DOCTYPE ffml SYSTEM "Ffml.dtd">
<ffml version="1.0">
<forcefield name="MMFF" derivedFrom="MMFF" base="MMFF">
<atomTypes>
<atomType
name="C100"
element="C"
mass="12.011"
annotation=""/>
<atomType
name="N101"
element="N"
mass="14.007"
annotation=""/>
<atomType
name="O102"
element="O"
mass="16"
annotation=""/>
<atomType
name="H103"
element="H"
mass="1.008"
annotation=""/>
</atomTypes>
<parameters>
</parameters>
</forcefield>
</ffml>

> <Initial Potential Energy>
215.5317

> <Initial RMS Gradient>
43.85668

> <Minimization Criteria>
STEEPD> Minimization exiting with gradient tolerance ( 3.0000000) satisfied.

> <CHARMm Energy>
84.15057

> <Potential Energy>
84.15057

> <RMS Gradient>
0.03538

> <Bond Energy>
5.96537

> <Angle Energy>
16.95773

> <STRBend>
0.39782

> <Dihedral Energy>
12.01924

> <OOPLane>
0.15176

> <Van der Waals Energy>
62.25348

> <Electrostatic Energy>
-13.59483

> <Hydrogen Bond Energy>
0

> <Solvation Free Energy>
0

> <HasGasteigerCharges>
true

> <REMARK99>
REMARK  99  MacroMolecule created from Mol2 file
REMARK  99  CHEMBL4746369
REMARK  99  PROTEIN
REMARK  99  GASTEIGER
REMARK  99
REMARK  99

$$$$
CHEMBL4757935
  SciTegic05292516403D

 48 51  0  0  0  0            999 V2000
    4.0320   -8.8348   -0.5774 C   0  0
    3.9592  -10.2133   -0.8013 C   0  0
    5.1244  -10.9945   -0.8717 C   0  0
    5.2707   -8.2052   -0.3972 C   0  0
    6.4418   -8.9742   -0.4631 C   0  0
    6.3551  -10.3430   -0.6985 C   0  0
    7.6667  -10.7630   -0.7176 N   0  0
    8.4760   -9.6639   -0.5121 C   0  0
    7.7466   -8.5758   -0.3455 N   0  0
    8.1233  -12.1167   -0.9284 C   0  0
    9.9708   -9.6977   -0.5457 C   0  0
   10.4183  -10.5855    0.4834 O   0  0
   11.7694  -10.6975    0.6645 C   0  0
   12.1482  -11.4948    1.7502 C   0  0
   13.4954  -11.7122    2.0472 C   0  0
   14.4821  -11.1244    1.2595 C   0  0
   14.1079  -10.3128    0.1826 C   0  0
   12.7555  -10.1096   -0.1263 C   0  0
   15.1256   -9.6811   -0.6857 C   0  0
   16.1454   -9.1344    0.0078 O   0  0
   15.0212   -9.6326   -1.8981 O   0  0
    2.7809  -10.8944   -1.0438 O   0  0
    1.6228  -10.3908   -0.5146 C   0  0
    1.4067  -10.3051    0.8563 C   0  0
    0.1811   -9.8276    1.3193 C   0  0
   -0.7956   -9.4603    0.3938 C   0  0
   -0.6053   -9.5549   -0.9448 N   0  0
    0.5914  -10.0287   -1.3672 C   0  0
   -2.1229   -8.9430    0.8650 C   0  0
    3.1368   -8.2194   -0.5567 H   0  0
    5.0610  -12.0590   -1.0699 H   0  0
    5.3344   -7.1350   -0.2318 H   0  0
    8.9898  -12.1059   -1.5938 H   0  0
    7.3314  -12.7079   -1.3932 H   0  0
    8.3870  -12.5428    0.0426 H   0  0
   10.3046  -10.0479   -1.5294 H   0  0
   10.3528   -8.6860   -0.3629 H   0  0
   11.3833  -11.9579    2.3706 H   0  0
   13.7690  -12.3495    2.8850 H   0  0
   15.5287  -11.3280    1.4728 H   0  0
   12.5143   -9.4928   -0.9873 H   0  0
   16.0035   -9.0983    0.9726 H   0  0
    2.1783  -10.6085    1.5577 H   0  0
   -0.0086   -9.7488    2.3852 H   0  0
    0.7036  -10.1064   -2.4443 H   0  0
   -2.7680   -8.6950    0.0160 H   0  0
   -1.9844   -8.0375    1.4639 H   0  0
   -2.6306   -9.7010    1.4695 H   0  0
  1  2  2  0
  1 30  1  0
  2  3  1  0
  2 22  1  0
  3  6  2  0
  3 31  1  0
  4  1  1  0
  4 32  1  0
  5  4  2  0
  5  6  1  0
  6  7  1  0
  7  8  1  0
  7 10  1  0
  8  9  2  0
  8 11  1  0
  9  5  1  0
 10 33  1  0
 10 34  1  0
 10 35  1  0
 11 12  1  0
 11 36  1  0
 11 37  1  0
 12 13  1  0
 13 14  2  0
 14 15  1  0
 14 38  1  0
 15 16  2  0
 15 39  1  0
 16 17  1  0
 16 40  1  0
 17 18  2  0
 17 19  1  0
 18 13  1  0
 18 41  1  0
 19 20  1  0
 19 21  2  0
 20 42  1  0
 22 23  1  0
 23 24  2  0
 24 25  1  0
 24 43  1  0
 25 26  2  0
 25 44  1  0
 26 27  1  0
 26 29  1  0
 27 28  2  0
 28 23  1  0
 28 45  1  0
 29 46  1  0
 29 47  1  0
 29 48  1  0
M  END
> <Name>
CHEMBL4757935

> <Clean Energy>
32.324001

> <chembl_id>
CHEMBL4757935

> <chembl_pref_name>
None

> <efficacy>
1.1

> <Forcefield>
MMFF

> <ForcefieldBase>
MMFF

> <ForcefieldFFML>
<?xml version="1.0" encoding="UTF-8"?>
<!DOCTYPE ffml SYSTEM "Ffml.dtd">
<ffml version="1.0">
<forcefield name="MMFF" derivedFrom="MMFF" base="MMFF">
<atomTypes>
<atomType
name="C100"
element="C"
mass="12.011"
annotation=""/>
<atomType
name="N101"
element="N"
mass="14.007"
annotation=""/>
<atomType
name="O102"
element="O"
mass="16"
annotation=""/>
<atomType
name="H103"
element="H"
mass="1.008"
annotation=""/>
</atomTypes>
<parameters>
</parameters>
</forcefield>
</ffml>

> <Initial Potential Energy>
205.60044

> <Initial RMS Gradient>
46.78082

> <Minimization Criteria>
CONJUG> Minimization exiting with gradient tolerance ( 0.0100000) satisfied.

> <CHARMm Energy>
76.38554

> <Potential Energy>
76.38554

> <RMS Gradient>
0.00962

> <Bond Energy>
4.59973

> <Angle Energy>
16.90789

> <STRBend>
0.14407

> <Dihedral Energy>
10.1847

> <OOPLane>
0.13555

> <Van der Waals Energy>
57.32987

> <Electrostatic Energy>
-12.91628

> <Hydrogen Bond Energy>
0

> <Solvation Free Energy>
0

> <HasGasteigerCharges>
true

> <REMARK99>
REMARK  99  MacroMolecule created from Mol2 file
REMARK  99  CHEMBL4757935
REMARK  99  PROTEIN
REMARK  99  GASTEIGER
REMARK  99
REMARK  99

$$$$
CHEMBL4456647
  SciTegic05292516403D

 77 81  0  0  0  0            999 V2000
    4.1513   -0.3205   -0.0556 N   0  0
    4.0777   -1.5646   -0.4136 C   0  0
    5.1134   -2.2489   -1.0325 N   0  0
    6.1904   -1.5110   -1.4916 C   0  0
    6.3805   -0.1684   -0.8896 C   0  0
    5.3410    0.3397   -0.2087 C   0  0
    5.3765    1.6673    0.5005 C   0  0
    6.9801   -1.9154   -2.3451 O   0  0
    7.7285    0.4525   -1.1143 C   0  0
    8.7985   -0.2892   -0.3322 C   0  0
    9.9987    0.3495   -0.4938 O   0  0
    8.6326   -1.3081    0.3304 O   0  0
    2.7767   -2.3174   -0.1477 C   0  0
    1.6985   -1.4878    0.5515 C   0  0
    0.4292   -2.3079    0.7819 C   0  0
   -0.6500   -1.4839    1.4661 C   0  0
    5.0268   -3.6587   -1.4896 C   0  0
    6.0666   -4.6531   -0.9654 C   0  0
    6.5334   -5.6838   -1.8090 C   0  0
    7.5086   -6.6178   -1.3901 C   0  0
    8.0526   -6.5658   -0.1021 C   0  0
    7.5130   -5.5884    0.7668 C   0  0
    6.5401   -4.6510    0.3482 C   0  0
    9.3407   -7.2426    0.2310 C   0  0
    9.6204   -8.6228    0.4292 C   0  0
   10.9565   -9.0110    0.7379 C   0  0
   12.0046   -8.0925    0.8113 C   0  0
   11.7473   -6.7534    0.5907 C   0  0
   10.4442   -6.3440    0.3103 C   0  0
    8.6236   -9.7356    0.3966 C   0  0
    7.3378   -9.6487    0.4779 N   0  0
    6.8581  -11.0159    0.4790 O   0  0
    7.9650  -11.8283    0.4030 C   0  0
    9.0383  -11.0237    0.3068 N   0  0
    7.9795  -13.0527    0.4298 O   0  0
   11.1274   -0.3026    0.1192 C   0  0
   11.6172   -1.4539   -0.7669 C   0  0
   12.9040   -2.0713   -0.2285 C   0  0
   13.9942   -1.0205   -0.0377 C   0  0
   13.5148    0.1386    0.8319 C   0  0
   12.2266    0.7498    0.2904 C   0  0
    6.3895    2.0044    0.7334 H   0  0
    4.8474    1.6012    1.4584 H   0  0
    4.8832    2.4323   -0.1077 H   0  0
    7.9874    0.4190   -2.1789 H   0  0
    7.7497    1.5029   -0.8116 H   0  0
    2.3880   -2.6710   -1.1100 H   0  0
    3.0117   -3.1949    0.4664 H   0  0
    2.0782   -1.1209    1.5133 H   0  0
    1.4590   -0.6053   -0.0548 H   0  0
    0.0455   -2.6773   -0.1761 H   0  0
    0.6591   -3.1841    1.3992 H   0  0
   -1.5474   -2.0904    1.6233 H   0  0
   -0.9279   -0.6184    0.8563 H   0  0
   -0.3089   -1.1222    2.4413 H   0  0
    4.0479   -4.0874   -1.2654 H   0  0
    5.1042   -3.6251   -2.5846 H   0  0
    6.1736   -5.7473   -2.8351 H   0  0
    7.8912   -7.3340   -2.1140 H   0  0
    7.9116   -5.4937    1.7767 H   0  0
    6.2030   -3.8963    1.0557 H   0  0
   11.2227  -10.0421    0.9600 H   0  0
   13.0127   -8.4285    1.0469 H   0  0
   12.5479   -6.0199    0.6389 H   0  0
   10.2781   -5.2781    0.1356 H   0  0
    9.9509  -11.4406    0.2181 H   0  0
   10.8514   -0.6762    1.1143 H   0  0
   10.8455   -2.2281   -0.8476 H   0  0
   11.7768   -1.0887   -1.7898 H   0  0
   12.6985   -2.5634    0.7301 H   0  0
   13.2568   -2.8478   -0.9167 H   0  0
   14.8770   -1.4830    0.4176 H   0  0
   14.3040   -0.6363   -1.0174 H   0  0
   13.3470   -0.2181    1.8555 H   0  0
   14.2944    0.9067    0.8848 H   0  0
   12.4226    1.2415   -0.6715 H   0  0
   11.8764    1.5427    0.9623 H   0  0
  1  2  2  0
  1  6  1  0
  2  3  1  0
  2 13  1  0
  3  4  1  0
  3 17  1  0
  4  5  1  0
  4  8  2  0
  5  6  2  0
  5  9  1  0
  6  7  1  0
  7 42  1  0
  7 43  1  0
  7 44  1  0
  9 10  1  0
  9 45  1  0
  9 46  1  0
 10 11  1  0
 10 12  2  0
 11 36  1  0
 13 14  1  0
 13 47  1  0
 13 48  1  0
 14 15  1  0
 14 49  1  0
 14 50  1  0
 15 16  1  0
 15 51  1  0
 15 52  1  0
 16 53  1  0
 16 54  1  0
 16 55  1  0
 17 18  1  0
 17 56  1  0
 17 57  1  0
 18 19  2  0
 19 20  1  0
 19 58  1  0
 20 21  2  0
 20 59  1  0
 21 22  1  0
 21 24  1  0
 22 23  2  0
 22 60  1  0
 23 18  1  0
 23 61  1  0
 24 25  2  0
 25 26  1  0
 25 30  1  0
 26 27  2  0
 26 62  1  0
 27 28  1  0
 27 63  1  0
 28 29  2  0
 28 64  1  0
 29 24  1  0
 29 65  1  0
 30 31  2  0
 31 32  1  0
 32 33  1  0
 33 34  1  0
 33 35  2  0
 34 30  1  0
 34 66  1  0
 36 37  1  0
 36 41  1  0
 36 67  1  0
 37 38  1  0
 37 68  1  0
 37 69  1  0
 38 39  1  0
 38 70  1  0
 38 71  1  0
 39 40  1  0
 39 72  1  0
 39 73  1  0
 40 41  1  0
 40 74  1  0
 40 75  1  0
 41 76  1  0
 41 77  1  0
M  END
> <Name>
CHEMBL4456647

> <Clean Energy>
43.837299

> <chembl_id>
CHEMBL4456647

> <chembl_pref_name>
None

> <efficacy>
0.930674264

> <Forcefield>
MMFF

> <ForcefieldBase>
MMFF

> <ForcefieldFFML>
<?xml version="1.0" encoding="UTF-8"?>
<!DOCTYPE ffml SYSTEM "Ffml.dtd">
<ffml version="1.0">
<forcefield name="MMFF" derivedFrom="MMFF" base="MMFF">
<atomTypes>
<atomType
name="N100"
element="N"
mass="14.007"
annotation=""/>
<atomType
name="C101"
element="C"
mass="12.011"
annotation=""/>
<atomType
name="O102"
element="O"
mass="16"
annotation=""/>
<atomType
name="H103"
element="H"
mass="1.008"
annotation=""/>
</atomTypes>
<parameters>
</parameters>
</forcefield>
</ffml>

> <Initial Potential Energy>
124.90804

> <Initial RMS Gradient>
24.57786

> <Minimization Criteria>
STEEPD> Minimization exiting with gradient tolerance ( 3.0000000) satisfied.

> <CHARMm Energy>
-7.12671

> <Potential Energy>
-7.12671

> <RMS Gradient>
0.03095

> <Bond Energy>
12.92677

> <Angle Energy>
28.76618

> <STRBend>
1.33986

> <Dihedral Energy>
-4.87182

> <OOPLane>
0.65574

> <Van der Waals Energy>
70.23292

> <Electrostatic Energy>
-116.17636

> <Hydrogen Bond Energy>
0

> <Solvation Free Energy>
0

> <HasGasteigerCharges>
true

> <REMARK99>
REMARK  99  MacroMolecule created from Mol2 file
REMARK  99  CHEMBL4456647
REMARK  99  PROTEIN
REMARK  99  GASTEIGER
REMARK  99
REMARK  99

$$$$
CHEMBL4776412
  SciTegic05292516403D

 52 55  0  0  0  0            999 V2000
   29.4902  -21.2257   -1.6710 C   0  0
   29.3464  -22.5265   -1.1741 C   0  0
   30.4576  -23.2903   -0.7923 C   0  0
   30.7535  -20.6346   -1.7596 C   0  0
   31.8729  -21.3751   -1.3577 C   0  0
   31.7147  -22.6775   -0.8918 C   0  0
   32.9987  -23.0918   -0.6165 N   0  0
   33.8598  -22.0575   -0.9202 C   0  0
   33.1896  -21.0090   -1.3610 N   0  0
   33.3800  -24.3877   -0.1072 C   0  0
   35.3484  -22.1445   -0.8397 C   0  0
   35.7114  -22.4827    0.5024 O   0  0
   37.0504  -22.5642    0.7780 C   0  0
   37.3580  -22.8150    2.1200 C   0  0
   38.6838  -22.9374    2.5436 C   0  0
   39.7204  -22.8023    1.6238 C   0  0
   39.4192  -22.5353    0.2838 C   0  0
   38.0882  -22.4303   -0.1443 C   0  0
   40.4919  -22.3984   -0.7254 C   0  0
   41.5221  -21.6384   -0.2997 O   0  0
   40.4221  -22.8941   -1.8355 O   0  0
   28.1130  -23.1444   -1.0761 O   0  0
   27.0999  -22.3695   -0.5727 C   0  0
   27.1632  -21.8079    0.7002 C   0  0
   26.1233  -20.9865    1.1391 C   0  0
   25.0578  -20.7749    0.2625 C   0  0
   24.9504  -21.3464   -0.9609 N   0  0
   25.9724  -22.1422   -1.3456 C   0  0
   24.0703  -19.9109    0.6889 O   0  0
   23.0660  -19.6731   -0.2917 C   0  0
   26.1725  -20.3322    2.4853 C   0  0
   28.6267  -20.6528   -1.9973 H   0  0
   30.3353  -24.3054   -0.4323 H   0  0
   30.8754  -19.6264   -2.1404 H   0  0
   34.2896  -24.7216   -0.6122 H   0  0
   32.5857  -25.1115   -0.3024 H   0  0
   33.5472  -24.2957    0.9686 H   0  0
   35.7007  -22.9120   -1.5391 H   0  0
   35.7765  -21.1717   -1.1104 H   0  0
   36.5551  -22.9229    2.8463 H   0  0
   38.9024  -23.1498    3.5878 H   0  0
   40.7484  -22.9356    1.9525 H   0  0
   37.9024  -22.2464   -1.1987 H   0  0
   41.3580  -21.1707    0.5410 H   0  0
   28.0261  -21.9930    1.3338 H   0  0
   25.8746  -22.5831   -2.3327 H   0  0
   23.4899  -19.2178   -1.1936 H   0  0
   22.3487  -18.9636    0.1321 H   0  0
   22.5207  -20.5924   -0.5322 H   0  0
   27.0306  -20.6823    3.0687 H   0  0
   25.2696  -20.5671    3.0583 H   0  0
   26.2607  -19.2466    2.3760 H   0  0
  1  2  2  0
  1 32  1  0
  2  3  1  0
  2 22  1  0
  3  6  2  0
  3 33  1  0
  4  1  1  0
  4 34  1  0
  5  4  2  0
  5  6  1  0
  6  7  1  0
  7  8  1  0
  7 10  1  0
  8  9  2  0
  8 11  1  0
  9  5  1  0
 10 35  1  0
 10 36  1  0
 10 37  1  0
 11 12  1  0
 11 38  1  0
 11 39  1  0
 12 13  1  0
 13 14  2  0
 14 15  1  0
 14 40  1  0
 15 16  2  0
 15 41  1  0
 16 17  1  0
 16 42  1  0
 17 18  2  0
 17 19  1  0
 18 13  1  0
 18 43  1  0
 19 20  1  0
 19 21  2  0
 20 44  1  0
 22 23  1  0
 23 24  2  0
 24 25  1  0
 24 45  1  0
 25 26  2  0
 25 31  1  0
 26 27  1  0
 26 29  1  0
 27 28  2  0
 28 23  1  0
 28 46  1  0
 29 30  1  0
 30 47  1  0
 30 48  1  0
 30 49  1  0
 31 50  1  0
 31 51  1  0
 31 52  1  0
M  END
> <Name>
CHEMBL4776412

> <Clean Energy>
47.7635

> <chembl_id>
CHEMBL4776412

> <chembl_pref_name>
None

> <efficacy>
1.25

> <Forcefield>
MMFF

> <ForcefieldBase>
MMFF

> <ForcefieldFFML>
<?xml version="1.0" encoding="UTF-8"?>
<!DOCTYPE ffml SYSTEM "Ffml.dtd">
<ffml version="1.0">
<forcefield name="MMFF" derivedFrom="MMFF" base="MMFF">
<atomTypes>
<atomType
name="C100"
element="C"
mass="12.011"
annotation=""/>
<atomType
name="N101"
element="N"
mass="14.007"
annotation=""/>
<atomType
name="O102"
element="O"
mass="16"
annotation=""/>
<atomType
name="H103"
element="H"
mass="1.008"
annotation=""/>
</atomTypes>
<parameters>
</parameters>
</forcefield>
</ffml>

> <Initial Potential Energy>
235.74853

> <Initial RMS Gradient>
51.09417

> <Minimization Criteria>
CONJUG> Minimization exiting with gradient tolerance ( 0.0100000) satisfied.

> <CHARMm Energy>
64.92662

> <Potential Energy>
64.92662

> <RMS Gradient>
0.00966

> <Bond Energy>
4.3882

> <Angle Energy>
18.00678

> <STRBend>
0.57321

> <Dihedral Energy>
11.6422

> <OOPLane>
0.09441

> <Van der Waals Energy>
65.23373

> <Electrostatic Energy>
-35.01191

> <Hydrogen Bond Energy>
0

> <Solvation Free Energy>
0

> <HasGasteigerCharges>
true

> <REMARK99>
REMARK  99  MacroMolecule created from Mol2 file
REMARK  99  CHEMBL4776412
REMARK  99  PROTEIN
REMARK  99  GASTEIGER
REMARK  99
REMARK  99

$$$$
CHEMBL4531918
  SciTegic05292516403D

 70 73  0  0  0  0            999 V2000
   14.6483   -1.6158   -0.3141 N   0  0
   14.6054   -2.8616   -0.6675 C   0  0
   15.6812   -3.5410   -1.2150 N   0  0
   16.7747   -2.7946   -1.6155 C   0  0
   16.9206   -1.4474   -1.0076 C   0  0
   15.8407   -0.9428   -0.3857 C   0  0
   15.8285    0.4044    0.3332 C   0  0
   14.9734    1.4186   -0.4307 C   0  0
   15.3409    0.2711    1.7814 C   0  0
   17.6131   -3.1962   -2.4227 O   0  0
   18.2814   -0.8298   -1.1560 C   0  0
   19.2715   -1.5041   -0.2237 C   0  0
   20.4257   -0.7700   -0.1758 O   0  0
   19.0924   -2.5564    0.3812 O   0  0
   13.2948   -3.6191   -0.4759 C   0  0
   12.1740   -2.7878    0.1511 C   0  0
   10.9011   -3.6152    0.3271 C   0  0
    9.7798   -2.7880    0.9358 C   0  0
   15.6333   -4.9546   -1.6660 C   0  0
   16.6581   -5.9334   -1.0861 C   0  0
   17.1643   -6.9731   -1.8954 C   0  0
   18.1329   -7.8895   -1.4264 C   0  0
   18.6302   -7.8101   -0.1208 C   0  0
   18.0490   -6.8261    0.7125 C   0  0
   17.0820   -5.9063    0.2439 C   0  0
   19.9152   -8.4631    0.2668 C   0  0
   20.2058   -9.8345    0.5031 C   0  0
   21.5362  -10.1995    0.8603 C   0  0
   22.5705   -9.2667    0.9446 C   0  0
   22.3036   -7.9360    0.6883 C   0  0
   21.0045   -7.5492    0.3606 C   0  0
   19.2244  -10.9593    0.4651 C   0  0
   17.9360  -10.8874    0.5129 N   0  0
   17.4733  -12.2600    0.5269 O   0  0
   18.5914  -13.0594    0.4926 C   0  0
   19.6570  -12.2434    0.4090 N   0  0
   18.6200  -14.2831    0.5410 O   0  0
   21.4449   -1.3821    0.6168 C   0  0
   16.8400    0.8159    0.3974 H   0  0
   15.0138    2.3997    0.0548 H   0  0
   13.9225    1.1117   -0.4757 H   0  0
   15.3349    1.5401   -1.4578 H   0  0
   15.4282    1.2298    2.3043 H   0  0
   15.9408   -0.4637    2.3295 H   0  0
   14.2913   -0.0388    1.8340 H   0  0
   18.6454   -0.9338   -2.1844 H   0  0
   18.2700    0.2409   -0.9375 H   0  0
   12.9667   -3.9828   -1.4570 H   0  0
   13.4961   -4.4900    0.1591 H   0  0
   12.4981   -2.4025    1.1259 H   0  0
   11.9610   -1.9167   -0.4812 H   0  0
   10.5732   -4.0065   -0.6428 H   0  0
   11.1041   -4.4770    0.9736 H   0  0
    8.8809   -3.4002    1.0582 H   0  0
    9.5270   -1.9380    0.2940 H   0  0
   10.0656   -2.4029    1.9199 H   0  0
   14.6498   -5.3935   -1.4857 H   0  0
   15.7630   -4.9265   -2.7561 H   0  0
   16.8430   -7.0560   -2.9328 H   0  0
   18.5494   -8.6125   -2.1245 H   0  0
   18.4100   -6.7104    1.7341 H   0  0
   16.7123   -5.1438    0.9261 H   0  0
   21.8072  -11.2222    1.1128 H   0  0
   23.5752   -9.5843    1.2170 H   0  0
   23.0938   -7.1919    0.7446 H   0  0
   20.8306   -6.4894    0.1584 H   0  0
   20.5757  -12.6525    0.3494 H   0  0
   22.3381   -0.7534    0.5625 H   0  0
   21.6975   -2.3729    0.2254 H   0  0
   21.1299   -1.4447    1.6632 H   0  0
  1  2  2  0
  1  6  1  0
  2  3  1  0
  2 15  1  0
  3  4  1  0
  3 19  1  0
  4  5  1  0
  4 10  2  0
  5  6  2  0
  5 11  1  0
  6  7  1  0
  7  8  1  0
  7  9  1  0
  7 39  1  0
  8 40  1  0
  8 41  1  0
  8 42  1  0
  9 43  1  0
  9 44  1  0
  9 45  1  0
 11 12  1  0
 11 46  1  0
 11 47  1  0
 12 13  1  0
 12 14  2  0
 13 38  1  0
 15 16  1  0
 15 48  1  0
 15 49  1  0
 16 17  1  0
 16 50  1  0
 16 51  1  0
 17 18  1  0
 17 52  1  0
 17 53  1  0
 18 54  1  0
 18 55  1  0
 18 56  1  0
 19 20  1  0
 19 57  1  0
 19 58  1  0
 20 21  2  0
 21 22  1  0
 21 59  1  0
 22 23  2  0
 22 60  1  0
 23 24  1  0
 23 26  1  0
 24 25  2  0
 24 61  1  0
 25 20  1  0
 25 62  1  0
 26 27  2  0
 27 28  1  0
 27 32  1  0
 28 29  2  0
 28 63  1  0
 29 30  1  0
 29 64  1  0
 30 31  2  0
 30 65  1  0
 31 26  1  0
 31 66  1  0
 32 33  2  0
 33 34  1  0
 34 35  1  0
 35 36  1  0
 35 37  2  0
 36 32  1  0
 36 67  1  0
 38 68  1  0
 38 69  1  0
 38 70  1  0
M  END
> <Name>
CHEMBL4531918

> <Clean Energy>
58.383099

> <chembl_id>
CHEMBL4531918

> <chembl_pref_name>
None

> <efficacy>
0.911680912

> <Forcefield>
MMFF

> <ForcefieldBase>
MMFF

> <ForcefieldFFML>
<?xml version="1.0" encoding="UTF-8"?>
<!DOCTYPE ffml SYSTEM "Ffml.dtd">
<ffml version="1.0">
<forcefield name="MMFF" derivedFrom="MMFF" base="MMFF">
<atomTypes>
<atomType
name="N100"
element="N"
mass="14.007"
annotation=""/>
<atomType
name="C101"
element="C"
mass="12.011"
annotation=""/>
<atomType
name="O102"
element="O"
mass="16"
annotation=""/>
<atomType
name="H103"
element="H"
mass="1.008"
annotation=""/>
</atomTypes>
<parameters>
</parameters>
</forcefield>
</ffml>

> <Initial Potential Energy>
143.05887

> <Initial RMS Gradient>
25.65177

> <Minimization Criteria>
STEEPD> Minimization exiting with gradient tolerance ( 3.0000000) satisfied.

> <CHARMm Energy>
-6.34174

> <Potential Energy>
-6.34174

> <RMS Gradient>
0.05064

> <Bond Energy>
12.72396

> <Angle Energy>
27.96852

> <STRBend>
1.31449

> <Dihedral Energy>
-0.19836

> <OOPLane>
0.6771

> <Van der Waals Energy>
67.97232

> <Electrostatic Energy>
-116.79977

> <Hydrogen Bond Energy>
0

> <Solvation Free Energy>
0

> <HasGasteigerCharges>
true

> <REMARK99>
REMARK  99  MacroMolecule created from Mol2 file
REMARK  99  CHEMBL4531918
REMARK  99  PROTEIN
REMARK  99  GASTEIGER
REMARK  99
REMARK  99

$$$$
CHEMBL4444888
  SciTegic05292516403D

 72 76  0  0  0  0            999 V2000
    7.1400  -11.1674   -0.4157 C   0  0
    5.8545  -11.0669   -0.4892 N   0  0
    5.3617  -12.4280   -0.5282 O   0  0
    6.4613  -13.2523   -0.4858 C   0  0
    7.5430  -12.4624   -0.3655 N   0  0
    7.5660   -1.6389    1.4518 C   0  0
    7.8017   -2.9796    1.3301 O   0  0
    8.9134   -3.1150    0.5005 N   0  0
    9.2410   -1.8453    0.2216 C   0  0
    8.4347   -0.8932    0.8013 N   0  0
    4.5766   -6.1179    1.0169 C   0  0
    5.1932   -6.9965    1.9285 C   0  0
    6.1820   -7.9233    1.5252 C   0  0
    6.5978   -8.0143    0.1896 C   0  0
    5.9388   -7.1682   -0.7287 C   0  0
    4.9472   -6.2402   -0.3271 C   0  0
    7.8784   -8.6873   -0.1742 C   0  0
    8.1445  -10.0622   -0.4244 C   0  0
    9.4724  -10.4512   -0.7648 C   0  0
   10.5266   -9.5391   -0.8217 C   0  0
   10.2818   -8.2056   -0.5533 C   0  0
    8.9852   -7.7938   -0.2417 C   0  0
    3.4853   -5.1517    1.4879 C   0  0
    3.7142   -3.7008    1.2724 N   0  0
    4.6931   -3.1060    2.0468 C   0  0
    5.0664   -1.7173    1.6948 C   0  0
    4.2042   -1.0433    0.9176 C   0  0
    3.0423   -1.5909    0.4413 N   0  0
    2.8502   -2.8660    0.5793 C   0  0
    5.2623   -3.6721    2.9789 O   0  0
    1.6024   -3.4823   -0.0460 C   0  0
    0.7278   -2.4918   -0.8156 C   0  0
   -0.4989   -3.1826   -1.4112 C   0  0
   -1.3731   -2.2014   -2.1757 C   0  0
    6.3785   -1.2390    2.2538 C   0  0
   10.3949   -1.5060   -0.6589 C   0  0
    6.4633  -14.4750   -0.5611 O   0  0
    4.4385    0.3633    0.4337 C   0  0
   11.5074   -0.8156    0.1313 C   0  0
    9.9599   -0.6380   -1.8408 C   0  0
    8.4490  -12.8979   -0.2957 H   0  0
    4.9357   -6.9490    2.9861 H   0  0
    6.6761   -8.5214    2.2885 H   0  0
    6.2432   -7.1777   -1.7748 H   0  0
    4.4911   -5.6031   -1.0817 H   0  0
    9.7262  -11.4763   -1.0258 H   0  0
   11.5288   -9.8753   -1.0826 H   0  0
   11.0889   -7.4780   -0.5886 H   0  0
    8.8271   -6.7321   -0.0352 H   0  0
    2.5531   -5.4807    1.0231 H   0  0
    3.3379   -5.2857    2.5679 H   0  0
    1.9224   -4.2828   -0.7238 H   0  0
    1.0105   -3.9364    0.7576 H   0  0
    0.4042   -1.6846   -0.1464 H   0  0
    1.3132   -2.0262   -1.6185 H   0  0
   -0.1832   -3.9851   -2.0880 H   0  0
   -1.0908   -3.6449   -0.6126 H   0  0
   -2.2434   -2.7155   -2.5949 H   0  0
   -0.8189   -1.7434   -3.0011 H   0  0
   -1.7339   -1.4030   -1.5194 H   0  0
    6.3761   -0.1472    2.3520 H   0  0
    6.5107   -1.5952    3.2831 H   0  0
   10.8090   -2.4365   -1.0697 H   0  0
    3.7416    1.0493    0.9261 H   0  0
    4.2690    0.4225   -0.6475 H   0  0
    5.4542    0.7237    0.6114 H   0  0
   12.3708   -0.6092   -0.5101 H   0  0
   11.8477   -1.4471    0.9599 H   0  0
   11.1674    0.1351    0.5576 H   0  0
   10.8045   -0.4397   -2.5092 H   0  0
    9.5603    0.3265   -1.5071 H   0  0
    9.1783   -1.1366   -2.4249 H   0  0
  1  2  2  0
  2  3  1  0
  3  4  1  0
  4  5  1  0
  4 37  2  0
  5  1  1  0
  5 41  1  0
  6  7  1  0
  7  8  1  0
  8  9  2  0
  9 10  1  0
  9 36  1  0
 10  6  2  0
 11 12  2  0
 11 23  1  0
 12 13  1  0
 12 42  1  0
 13 14  2  0
 13 43  1  0
 14 15  1  0
 14 17  1  0
 15 16  2  0
 15 44  1  0
 16 11  1  0
 16 45  1  0
 17 18  2  0
 18  1  1  0
 18 19  1  0
 19 20  2  0
 19 46  1  0
 20 21  1  0
 20 47  1  0
 21 22  2  0
 21 48  1  0
 22 17  1  0
 22 49  1  0
 23 24  1  0
 23 50  1  0
 23 51  1  0
 24 25  1  0
 24 29  1  0
 25 26  1  0
 25 30  2  0
 26 27  2  0
 26 35  1  0
 27 28  1  0
 27 38  1  0
 28 29  2  0
 29 31  1  0
 31 32  1  0
 31 52  1  0
 31 53  1  0
 32 33  1  0
 32 54  1  0
 32 55  1  0
 33 34  1  0
 33 56  1  0
 33 57  1  0
 34 58  1  0
 34 59  1  0
 34 60  1  0
 35  6  1  0
 35 61  1  0
 35 62  1  0
 36 39  1  0
 36 40  1  0
 36 63  1  0
 38 64  1  0
 38 65  1  0
 38 66  1  0
 39 67  1  0
 39 68  1  0
 39 69  1  0
 40 70  1  0
 40 71  1  0
 40 72  1  0
M  END
> <Name>
CHEMBL4444888

> <Clean Energy>
74.396896

> <chembl_id>
CHEMBL4444888

> <chembl_pref_name>
None

> <efficacy>
0.959164292

> <Forcefield>
MMFF

> <ForcefieldBase>
MMFF

> <ForcefieldFFML>
<?xml version="1.0" encoding="UTF-8"?>
<!DOCTYPE ffml SYSTEM "Ffml.dtd">
<ffml version="1.0">
<forcefield name="MMFF" derivedFrom="MMFF" base="MMFF">
<atomTypes>
<atomType
name="C100"
element="C"
mass="12.011"
annotation=""/>
<atomType
name="N101"
element="N"
mass="14.007"
annotation=""/>
<atomType
name="O102"
element="O"
mass="16"
annotation=""/>
<atomType
name="H103"
element="H"
mass="1.008"
annotation=""/>
</atomTypes>
<parameters>
</parameters>
</forcefield>
</ffml>

> <Initial Potential Energy>
220.90511

> <Initial RMS Gradient>
33.73076

> <Minimization Criteria>
STEEPD> Minimization exiting with gradient tolerance ( 3.0000000) satisfied.

> <CHARMm Energy>
5.18056

> <Potential Energy>
5.18056

> <RMS Gradient>
0.05719

> <Bond Energy>
12.17247

> <Angle Energy>
27.17004

> <STRBend>
1.17546

> <Dihedral Energy>
2.78282

> <OOPLane>
0.69359

> <Van der Waals Energy>
61.39099

> <Electrostatic Energy>
-100.20482

> <Hydrogen Bond Energy>
0

> <Solvation Free Energy>
0

> <HasGasteigerCharges>
true

> <REMARK99>
REMARK  99  MacroMolecule created from Mol2 file
REMARK  99  CHEMBL4444888
REMARK  99  PROTEIN
REMARK  99  GASTEIGER
REMARK  99
REMARK  99

$$$$
CHEMBL4749151
  SciTegic05292516403D

 54 57  0  0  0  0            999 V2000
    4.8865  -16.2056   -0.4646 C   0  0
    4.8505  -17.5938   -0.2976 C   0  0
    6.0374  -18.3353   -0.2171 C   0  0
    6.1079  -15.5025   -0.5366 C   0  0
    7.2997  -16.2510   -0.4538 C   0  0
    7.2485  -17.6339   -0.3010 C   0  0
    8.5703  -18.0223   -0.2795 N   0  0
    9.3551  -16.8968   -0.4212 C   0  0
    8.6011  -15.8181   -0.5200 N   0  0
    9.0558  -19.3758   -0.1432 C   0  0
   10.8476  -16.9152   -0.5206 C   0  0
   11.3650  -17.4988    0.6792 O   0  0
   12.7240  -17.6047    0.7866 C   0  0
   13.1711  -18.1584    1.9912 C   0  0
   14.5334  -18.3484    2.2326 C   0  0
   15.4668  -17.9767    1.2680 C   0  0
   15.0259  -17.4024    0.0705 C   0  0
   13.6569  -17.2271   -0.1778 C   0  0
   15.9826  -17.0080   -0.9874 C   0  0
   17.0769  -16.3817   -0.5080 O   0  0
   15.7704  -17.2004   -2.1714 O   0  0
    3.6906  -18.3457   -0.2659 O   0  0
    2.5189  -17.7185    0.0749 C   0  0
    2.3027  -17.2710    1.3758 C   0  0
    1.0803  -16.6872    1.6981 C   0  0
    0.1052  -16.5791    0.7097 C   0  0
    0.2960  -17.0229   -0.5570 N   0  0
    1.4897  -17.5981   -0.8591 C   0  0
    1.6630  -18.0968   -2.2629 C   0  0
   -1.2246  -15.9612    1.0281 C   0  0
    6.0877  -14.0137   -0.7269 C   0  0
    3.9639  -15.6373   -0.5588 H   0  0
    6.0048  -19.4140   -0.1087 H   0  0
    9.9006  -19.5272   -0.8194 H   0  0
    8.2657  -20.0821   -0.4076 H   0  0
    9.3605  -19.5259    0.8954 H   0  0
   11.1436  -17.5030   -1.3975 H   0  0
   11.2118  -15.8861   -0.6233 H   0  0
   12.4477  -18.4544    2.7488 H   0  0
   14.8589  -18.7996    3.1672 H   0  0
   16.5226  -18.1665    1.4452 H   0  0
   13.3612  -16.7980   -1.1310 H   0  0
   17.0209  -16.1391    0.4353 H   0  0
    3.0763  -17.3786    2.1305 H   0  0
    0.8923  -16.3295    2.7054 H   0  0
    2.4824  -17.5652   -2.7566 H   0  0
    0.7525  -17.9344   -2.8487 H   0  0
    1.8762  -19.1702   -2.2615 H   0  0
   -1.8699  -15.9472    0.1438 H   0  0
   -1.0908  -14.9299    1.3687 H   0  0
   -1.7298  -16.5365    1.8101 H   0  0
    7.0985  -13.5946   -0.7142 H   0  0
    5.5164  -13.5390    0.0773 H   0  0
    5.6279  -13.7637   -1.6882 H   0  0
  1  2  2  0
  1 32  1  0
  2  3  1  0
  2 22  1  0
  3  6  2  0
  3 33  1  0
  4  1  1  0
  4 31  1  0
  5  4  2  0
  5  6  1  0
  6  7  1  0
  7  8  1  0
  7 10  1  0
  8  9  2  0
  8 11  1  0
  9  5  1  0
 10 34  1  0
 10 35  1  0
 10 36  1  0
 11 12  1  0
 11 37  1  0
 11 38  1  0
 12 13  1  0
 13 14  2  0
 14 15  1  0
 14 39  1  0
 15 16  2  0
 15 40  1  0
 16 17  1  0
 16 41  1  0
 17 18  2  0
 17 19  1  0
 18 13  1  0
 18 42  1  0
 19 20  1  0
 19 21  2  0
 20 43  1  0
 22 23  1  0
 23 24  2  0
 24 25  1  0
 24 44  1  0
 25 26  2  0
 25 45  1  0
 26 27  1  0
 26 30  1  0
 27 28  2  0
 28 23  1  0
 28 29  1  0
 29 46  1  0
 29 47  1  0
 29 48  1  0
 30 49  1  0
 30 50  1  0
 30 51  1  0
 31 52  1  0
 31 53  1  0
 31 54  1  0
M  END
> <Name>
CHEMBL4749151

> <Clean Energy>
31.8246

> <chembl_id>
CHEMBL4749151

> <chembl_pref_name>
None

> <efficacy>
1.16

> <Forcefield>
MMFF

> <ForcefieldBase>
MMFF

> <ForcefieldFFML>
<?xml version="1.0" encoding="UTF-8"?>
<!DOCTYPE ffml SYSTEM "Ffml.dtd">
<ffml version="1.0">
<forcefield name="MMFF" derivedFrom="MMFF" base="MMFF">
<atomTypes>
<atomType
name="C100"
element="C"
mass="12.011"
annotation=""/>
<atomType
name="N101"
element="N"
mass="14.007"
annotation=""/>
<atomType
name="O102"
element="O"
mass="16"
annotation=""/>
<atomType
name="H103"
element="H"
mass="1.008"
annotation=""/>
</atomTypes>
<parameters>
</parameters>
</forcefield>
</ffml>

> <Initial Potential Energy>
222.15322

> <Initial RMS Gradient>
47.35467

> <Minimization Criteria>
STEEPD> Minimization exiting with gradient tolerance ( 3.0000000) satisfied.

> <CHARMm Energy>
81.19714

> <Potential Energy>
81.19714

> <RMS Gradient>
0.05133

> <Bond Energy>
5.23329

> <Angle Energy>
17.36984

> <STRBend>
0.17871

> <Dihedral Energy>
9.91106

> <OOPLane>
0.13575

> <Van der Waals Energy>
60.7071

> <Electrostatic Energy>
-12.33861

> <Hydrogen Bond Energy>
0

> <Solvation Free Energy>
0

> <HasGasteigerCharges>
true

> <REMARK99>
REMARK  99  MacroMolecule created from Mol2 file
REMARK  99  CHEMBL4749151
REMARK  99  PROTEIN
REMARK  99  GASTEIGER
REMARK  99
REMARK  99

$$$$
CHEMBL5081996
  SciTegic05292516403D

 54 56  0  0  0  0            999 V2000
   35.7028  -13.8412   -1.1428 C   0  0
   36.0206  -13.9061    0.3633 C   0  0
   37.0945  -14.9780    0.6108 C   0  0
   31.5616  -13.7606   -0.2100 C   0  0
   31.2131  -15.0770   -0.5479 C   0  0
   32.1077  -16.0997   -0.2273 C   0  0
   33.3290  -15.8227    0.4105 C   0  0
   33.6900  -14.4890    0.6720 C   0  0
   32.7710  -13.4548    0.4425 C   0  0
   34.9059  -14.2282    1.2382 O   0  0
   36.6303  -12.5765    0.8751 C   0  0
   37.5723  -12.0205    0.0756 O   0  0
   36.3688  -12.0599    1.9534 O   0  0
   29.9098  -15.3923   -1.2542 C   0  0
   28.7803  -14.6900   -0.6881 N   0  0
   28.2455  -13.4865   -1.1641 C   0  0
   27.3103  -13.1042   -0.2173 N   0  0
   27.3489  -14.0856    0.7140 C   0  0
   28.1931  -15.0454    0.4977 N   0  0
   28.6000  -12.9235   -2.1893 O   0  0
   26.5382  -11.9174   -0.1895 C   0  0
   26.6536  -10.9446   -1.1934 C   0  0
   25.9341   -9.7440   -1.1360 C   0  0
   25.0646   -9.4803   -0.0732 C   0  0
   24.9261  -10.4511    0.9236 C   0  0
   25.6484  -11.6523    0.8633 C   0  0
   24.3411   -8.1608    0.0068 C   0  0
   25.1702   -7.1272    0.3202 F   0  0
   23.3516   -8.1414    0.9456 F   0  0
   23.7375   -7.8143   -1.1656 F   0  0
   34.2181  -16.9796    0.7671 C   0  0
   33.0206  -12.0312    0.8814 C   0  0
   33.4261  -11.9335    2.1762 F   0  0
   31.9230  -11.2270    0.7763 F   0  0
   33.9868  -11.4308    0.1282 F   0  0
   35.0377  -13.0050   -1.3781 H   0  0
   35.2204  -14.7582   -1.4970 H   0  0
   36.6048  -13.7122   -1.7498 H   0  0
   37.2946  -15.0910    1.6830 H   0  0
   38.0407  -14.7331    0.1162 H   0  0
   36.7727  -15.9561    0.2435 H   0  0
   30.8723  -12.9477   -0.4384 H   0  0
   31.8601  -17.1363   -0.4613 H   0  0
   37.8586  -12.5179   -0.7110 H   0  0
   30.0134  -15.1182   -2.3102 H   0  0
   29.6863  -16.4638   -1.2011 H   0  0
   26.7010  -14.0418    1.5951 H   0  0
   27.3191  -11.0740   -2.0427 H   0  0
   26.0694   -9.0064   -1.9268 H   0  0
   24.2661  -10.2766    1.7721 H   0  0
   25.4834  -12.3540    1.6759 H   0  0
   34.8403  -16.7558    1.6389 H   0  0
   34.8578  -17.2370   -0.0820 H   0  0
   33.6211  -17.8600    1.0303 H   0  0
  1 36  1  0
  1 37  1  0
  1 38  1  0
  2  1  1  0
  2 11  1  0
  3  2  1  0
  3 39  1  0
  3 40  1  0
  3 41  1  0
  4  5  2  0
  4 42  1  0
  5  6  1  0
  5 14  1  0
  6  7  2  0
  6 43  1  0
  7  8  1  0
  7 31  1  0
  8  9  2  0
  8 10  1  0
  9  4  1  0
  9 32  1  0
 10  2  1  0
 11 12  1  0
 11 13  2  0
 12 44  1  0
 14 15  1  0
 14 45  1  0
 14 46  1  0
 15 16  1  0
 16 17  1  0
 16 20  2  0
 17 18  1  0
 17 21  1  0
 18 19  2  0
 18 47  1  0
 19 15  1  0
 21 22  2  0
 22 23  1  0
 22 48  1  0
 23 24  2  0
 23 49  1  0
 24 25  1  0
 24 27  1  0
 25 26  2  0
 25 50  1  0
 26 21  1  0
 26 51  1  0
 27 28  1  0
 27 29  1  0
 27 30  1  0
 31 52  1  0
 31 53  1  0
 31 54  1  0
 32 33  1  0
 32 34  1  0
 32 35  1  0
M  END
> <Name>
CHEMBL5081996

> <Clean Energy>
85.737801

> <chembl_id>
CHEMBL5081996

> <chembl_pref_name>
None

> <efficacy>
1.5

> <Forcefield>
MMFF

> <ForcefieldBase>
MMFF

> <ForcefieldFFML>
<?xml version="1.0" encoding="UTF-8"?>
<!DOCTYPE ffml SYSTEM "Ffml.dtd">
<ffml version="1.0">
<forcefield name="MMFF" derivedFrom="MMFF" base="MMFF">
<atomTypes>
<atomType
name="C100"
element="C"
mass="12.011"
annotation=""/>
<atomType
name="O101"
element="O"
mass="16"
annotation=""/>
<atomType
name="N102"
element="N"
mass="14.007"
annotation=""/>
<atomType
name="F103"
element="F"
mass="18.998"
annotation=""/>
<atomType
name="H104"
element="H"
mass="1.008"
annotation=""/>
</atomTypes>
<parameters>
</parameters>
</forcefield>
</ffml>

> <Initial Potential Energy>
268.48763

> <Initial RMS Gradient>
31.0545

> <Minimization Criteria>
STEEPD> Minimization exiting with gradient tolerance ( 3.0000000) satisfied.

> <CHARMm Energy>
137.26957

> <Potential Energy>
137.26957

> <RMS Gradient>
0.0375

> <Bond Energy>
7.4743

> <Angle Energy>
29.18256

> <STRBend>
0.06557

> <Dihedral Energy>
9.77763

> <OOPLane>
0.25492

> <Van der Waals Energy>
53.87585

> <Electrostatic Energy>
36.63875

> <Hydrogen Bond Energy>
0

> <Solvation Free Energy>
0

> <HasGasteigerCharges>
true

> <REMARK99>
REMARK  99  MacroMolecule created from Mol2 file
REMARK  99  CHEMBL5081996
REMARK  99  PROTEIN
REMARK  99  GASTEIGER
REMARK  99
REMARK  99

$$$$
CHEMBL5091134
  SciTegic05292516403D

 60 64  0  0  0  0            999 V2000
    2.0974   -0.3772    2.6808 F   0  0
    3.0202   -0.5960    1.7029 C   0  0
    4.2368   -0.5104    2.3128 F   0  0
   -2.2529   -5.1488    0.3840 O   0  0
   -1.2612   -4.0862    0.4099 S   0  0
   -1.5361   -2.8493    1.1182 O   0  0
    1.7192   -2.7180    1.2912 C   0  0
    1.4658   -3.9355    0.6421 C   0  0
    2.3624   -4.3590   -0.3426 C   0  0
    3.4835   -3.5887   -0.6642 C   0  0
    3.7621   -2.3793    0.0007 C   0  0
    2.8470   -1.9229    0.9798 C   0  0
    5.0206   -1.6213   -0.3861 C   0  0
    6.2173   -2.4328   -0.2492 N   0  0
    7.4688   -1.8949   -0.4624 C   0  0
    8.6184   -2.8248   -0.3180 C   0  0
    7.6854   -0.7191   -0.7373 O   0  0
    8.6564   -4.0572   -0.9774 C   0  0
    9.7976   -4.8727   -0.9219 C   0  0
    9.7229   -2.3858    0.4227 C   0  0
   10.8736   -3.1963    0.5023 C   0  0
   10.9038   -4.4176   -0.1814 C   0  0
   12.1672   -4.9493    0.0138 N   0  0
   12.9047   -4.1243    0.8299 C   0  0
   12.1279   -3.0373    1.1497 C   0  0
   12.7256   -6.1485   -0.6120 C   0  0
    0.2725   -4.7845    1.0094 C   0  0
   -0.9458   -3.6897   -1.3408 C   0  0
    2.9304    0.4691    0.8607 F   0  0
   -0.5629   -2.2624   -1.6268 C   0  0
   -1.9551   -2.7419   -1.9342 C   0  0
   12.9443   -7.2816    0.3744 C   0  0
   11.7123   -8.1377    0.6929 C   0  0
   12.1640   -9.1743   -0.2155 O   0  0
   13.4809   -8.5720   -0.2621 C   0  0
    1.0215   -2.3694    2.0569 H   0  0
    2.2149   -5.3021   -0.8669 H   0  0
    4.1523   -3.9443   -1.4474 H   0  0
    4.9427   -1.3064   -1.4338 H   0  0
    5.1631   -0.7136    0.2053 H   0  0
    6.1377   -3.3854    0.0809 H   0  0
    7.8099   -4.3765   -1.5815 H   0  0
    9.8442   -5.8085   -1.4711 H   0  0
    9.7148   -1.4121    0.9081 H   0  0
   13.9257   -4.3671    1.0979 H   0  0
   12.4262   -2.1988    1.7652 H   0  0
   12.0733   -6.4431   -1.4405 H   0  0
   13.6813   -5.8386   -1.0532 H   0  0
    0.3584   -5.7885    0.5802 H   0  0
    0.1902   -4.8886    2.0961 H   0  0
   -0.5594   -4.4828   -1.9631 H   0  0
   -0.4435   -1.5582   -0.8106 H   0  0
    0.1068   -2.0762   -2.4590 H   0  0
   -2.2246   -2.8758   -2.9750 H   0  0
   -2.7651   -2.3732   -1.3134 H   0  0
   13.5183   -6.9854    1.2601 H   0  0
   11.6535   -8.5119    1.7199 H   0  0
   10.7427   -7.7309    0.3940 H   0  0
   14.1941   -9.1361    0.3474 H   0  0
   13.8553   -8.4903   -1.2863 H   0  0
  2  1  1  0
  2 29  1  0
  3  2  1  0
  5  4  2  0
  5 28  1  0
  6  5  2  0
  7  8  2  0
  7 36  1  0
  8  9  1  0
  8 27  1  0
  9 10  2  0
  9 37  1  0
 10 11  1  0
 10 38  1  0
 11 12  2  0
 11 13  1  0
 12  2  1  0
 12  7  1  0
 13 14  1  0
 13 39  1  0
 13 40  1  0
 14 15  1  0
 14 41  1  0
 15 16  1  0
 15 17  2  0
 16 18  2  0
 18 19  1  0
 18 42  1  0
 19 22  2  0
 19 43  1  0
 20 16  1  0
 20 44  1  0
 21 20  2  0
 21 22  1  0
 22 23  1  0
 23 24  1  0
 23 26  1  0
 24 25  2  0
 24 45  1  0
 25 21  1  0
 25 46  1  0
 26 32  1  0
 26 47  1  0
 26 48  1  0
 27  5  1  0
 27 49  1  0
 27 50  1  0
 28 31  1  0
 28 51  1  0
 30 28  1  0
 30 52  1  0
 30 53  1  0
 31 30  1  0
 31 54  1  0
 31 55  1  0
 32 33  1  0
 32 56  1  0
 33 34  1  0
 33 57  1  0
 33 58  1  0
 34 35  1  0
 35 32  1  0
 35 59  1  0
 35 60  1  0
M  END
> <Name>
CHEMBL5091134

> <Clean Energy>
89.411797

> <chembl_id>
CHEMBL5091134

> <chembl_pref_name>
None

> <efficacy>
1.130104463

> <Forcefield>
MMFF

> <ForcefieldBase>
MMFF

> <ForcefieldFFML>
<?xml version="1.0" encoding="UTF-8"?>
<!DOCTYPE ffml SYSTEM "Ffml.dtd">
<ffml version="1.0">
<forcefield name="MMFF" derivedFrom="MMFF" base="MMFF">
<atomTypes>
<atomType
name="F100"
element="F"
mass="18.998"
annotation=""/>
<atomType
name="C101"
element="C"
mass="12.011"
annotation=""/>
<atomType
name="O102"
element="O"
mass="16"
annotation=""/>
<atomType
name="S103"
element="S"
mass="32.066"
annotation=""/>
<atomType
name="N104"
element="N"
mass="14.007"
annotation=""/>
<atomType
name="H105"
element="H"
mass="1.008"
annotation=""/>
</atomTypes>
<parameters>
</parameters>
</forcefield>
</ffml>

> <Initial Potential Energy>
183.2441

> <Initial RMS Gradient>
27.69899

> <Minimization Criteria>
CONJUG> Minimization exiting with gradient tolerance ( 0.0100000) satisfied.

> <CHARMm Energy>
94.76979

> <Potential Energy>
94.76979

> <RMS Gradient>
0.00945

> <Bond Energy>
6.70454

> <Angle Energy>
10.42831

> <STRBend>
0.29984

> <Dihedral Energy>
15.82877

> <OOPLane>
0.09117

> <Van der Waals Energy>
44.06555

> <Electrostatic Energy>
17.35161

> <Hydrogen Bond Energy>
0

> <Solvation Free Energy>
0

> <HasGasteigerCharges>
true

> <REMARK99>
REMARK  99  MacroMolecule created from Mol2 file
REMARK  99  CHEMBL5091134
REMARK  99  PROTEIN
REMARK  99  GASTEIGER
REMARK  99
REMARK  99

$$$$
CHEMBL603
  SciTegic05292516403D

 74 78  0  0  0  0            999 V2000
    8.9186  -11.7569    0.8340 S   0  0
    7.9097  -10.4974    0.3600 N   0  0
    2.3657   -5.3041   -0.0037 C   0  0
    2.0457   -3.6923    1.5247 N   0  0
    0.9583   -5.2763    0.3744 C   0  0
    2.9814   -4.3088    0.7427 C   0  0
    0.8067   -4.2602    1.3246 C   0  0
    6.5770  -10.4067    0.7985 C   0  0
   -3.9629   -6.2074    0.4577 C   0  0
   10.3476  -11.4322   -0.2034 C   0  0
    3.0468   -6.1167   -1.0858 C   0  0
    5.7862   -9.2017    0.3632 C   0  0
    4.0720   -7.0872   -0.4969 C   0  0
    8.3932  -13.0279    0.3919 O   0  0
    9.2742  -11.4743    2.2063 O   0  0
    5.4142   -7.1797   -0.9662 C   0  0
   -2.6380   -6.3661    0.0976 N   0  0
    6.2534   -8.2368   -0.5402 C   0  0
   -0.4387   -3.9320    1.8906 C   0  0
   -0.2228   -5.9815   -0.0097 C   0  0
   -4.7107   -7.1105   -0.2426 O   0  0
   -1.4947   -5.6492    0.5388 C   0  0
   -4.4459   -5.4152    1.2543 O   0  0
    6.0153  -11.2529    1.4780 O   0  0
    4.4790   -9.0770    0.8594 C   0  0
    3.6356   -8.0464    0.4320 C   0  0
   11.6648  -11.3829    0.2858 C   0  0
   -1.5804   -4.6291    1.4805 C   0  0
    2.2990   -2.5573    2.3901 C   0  0
    5.8301   -6.2300   -1.8738 O   0  0
   -6.1188   -7.0722    0.0022 C   0  0
   10.0840  -11.2142   -1.5696 C   0  0
   12.0436  -11.6668    1.7122 C   0  0
   12.6891  -11.0515   -0.6187 C   0  0
    7.2109   -6.1860   -2.2323 C   0  0
   -6.7752   -8.3089   -0.5989 C   0  0
   -6.8079   -5.9445   -0.7580 C   0  0
   11.1199  -10.9042   -2.4478 C   0  0
   12.4219  -10.8155   -1.9698 C   0  0
   -8.2415   -7.9210   -0.7237 C   0  0
   -8.2569   -6.4006   -0.8900 C   0  0
    8.4143   -9.6502    0.1329 H   0  0
    4.0173   -3.9883    0.7459 H   0  0
    2.3090   -6.6923   -1.6571 H   0  0
    3.5205   -5.4230   -1.7895 H   0  0
   -2.4759   -7.1075   -0.5706 H   0  0
    7.2512   -8.3332   -0.9521 H   0  0
   -0.5267   -3.1426    2.6300 H   0  0
   -0.1330   -6.7755   -0.7450 H   0  0
    4.0904   -9.8103    1.5665 H   0  0
    2.6137   -8.0190    0.8091 H   0  0
   -2.5301   -4.3428    1.9281 H   0  0
    1.6996   -1.7137    2.0386 H   0  0
    3.3606   -2.3002    2.3503 H   0  0
    2.0236   -2.8346    3.4107 H   0  0
   -6.3334   -7.0284    1.0783 H   0  0
    9.0702  -11.3023   -1.9578 H   0  0
   13.1268  -11.7958    1.8175 H   0  0
   11.5874  -12.5999    2.0571 H   0  0
   11.7491  -10.8350    2.3587 H   0  0
   13.7224  -10.9947   -0.2771 H   0  0
    7.3621   -5.3043   -2.8624 H   0  0
    7.4880   -7.0671   -2.8195 H   0  0
    7.8469   -6.0780   -1.3477 H   0  0
   -6.3488   -8.5344   -1.5845 H   0  0
   -6.6290   -9.1975    0.0233 H   0  0
   -6.7261   -4.9829   -0.2419 H   0  0
   -6.3541   -5.8139   -1.7483 H   0  0
   10.9078  -10.7358   -3.5006 H   0  0
   13.2419  -10.5857   -2.6484 H   0  0
   -8.7236   -8.4304   -1.5638 H   0  0
   -8.7858   -8.1985    0.1866 H   0  0
   -8.6757   -6.1036   -1.8569 H   0  0
   -8.8779   -5.9460   -0.1098 H   0  0
  2  1  1  0
  2 42  1  0
  3 11  1  0
  4  6  1  0
  5  3  1  0
  6  3  2  0
  6 43  1  0
  7  4  1  0
  7  5  2  0
  8  2  1  0
  9 17  1  0
 10  1  1  0
 11 13  1  0
 11 44  1  0
 11 45  1  0
 12  8  1  0
 13 16  2  0
 13 26  1  0
 14  1  2  0
 15  1  2  0
 16 18  1  0
 17 22  1  0
 17 46  1  0
 18 12  2  0
 18 47  1  0
 19  7  1  0
 19 28  2  0
 19 48  1  0
 20  5  1  0
 20 49  1  0
 21  9  1  0
 22 20  2  0
 23  9  2  0
 24  8  2  0
 25 12  1  0
 25 50  1  0
 26 25  2  0
 26 51  1  0
 27 10  2  0
 28 22  1  0
 28 52  1  0
 29  4  1  0
 29 53  1  0
 29 54  1  0
 29 55  1  0
 30 16  1  0
 31 21  1  0
 31 56  1  0
 32 10  1  0
 32 57  1  0
 33 27  1  0
 33 58  1  0
 33 59  1  0
 33 60  1  0
 34 27  1  0
 34 39  2  0
 34 61  1  0
 35 30  1  0
 35 62  1  0
 35 63  1  0
 35 64  1  0
 36 31  1  0
 36 65  1  0
 36 66  1  0
 37 31  1  0
 37 67  1  0
 37 68  1  0
 38 32  2  0
 38 69  1  0
 39 38  1  0
 39 70  1  0
 40 36  1  0
 40 41  1  0
 40 71  1  0
 40 72  1  0
 41 37  1  0
 41 73  1  0
 41 74  1  0
M  END
> <Name>
CHEMBL603

> <Clean Energy>
60.419701

> <chembl_id>
CHEMBL603

> <chembl_pref_name>
ZAFIRLUKAST

> <efficacy>
1.225071225

> <Forcefield>
MMFF

> <ForcefieldBase>
MMFF

> <ForcefieldFFML>
<?xml version="1.0" encoding="UTF-8"?>
<!DOCTYPE ffml SYSTEM "Ffml.dtd">
<ffml version="1.0">
<forcefield name="MMFF" derivedFrom="MMFF" base="MMFF">
<atomTypes>
<atomType
name="S100"
element="S"
mass="32.066"
annotation=""/>
<atomType
name="N101"
element="N"
mass="14.007"
annotation=""/>
<atomType
name="C102"
element="C"
mass="12.011"
annotation=""/>
<atomType
name="O103"
element="O"
mass="16"
annotation=""/>
<atomType
name="H104"
element="H"
mass="1.008"
annotation=""/>
</atomTypes>
<parameters>
</parameters>
</forcefield>
</ffml>

> <Initial Potential Energy>
92.41754

> <Initial RMS Gradient>
30.84684

> <Minimization Criteria>
CONJUG> Minimization exiting with gradient tolerance ( 0.0100000) satisfied.

> <CHARMm Energy>
-48.53157

> <Potential Energy>
-48.53157

> <RMS Gradient>
0.00946

> <Bond Energy>
11.65115

> <Angle Energy>
27.10127

> <STRBend>
1.47783

> <Dihedral Energy>
-4.23396

> <OOPLane>
0.27208

> <Van der Waals Energy>
71.29899

> <Electrostatic Energy>
-156.09892

> <Hydrogen Bond Energy>
0

> <Solvation Free Energy>
0

> <HasGasteigerCharges>
true

> <REMARK99>
REMARK  99  MacroMolecule created from Mol2 file
REMARK  99  CHEMBL603
REMARK  99  PROTEIN
REMARK  99  GASTEIGER
REMARK  99
REMARK  99

$$$$
CHEMBL107367
  SciTegic05292516403D

 71 75  0  0  0  0            999 V2000
   -4.2622   -2.9383    0.8195 N   0  0
   -5.1201   -2.2909    0.0482 C   0  0
   -4.5611   -1.2135   -0.5969 O   0  0
   -3.0823   -2.2401    0.6930 C   0  0
    9.6881   -2.6653   -0.1750 C   0  0
   -3.2693   -1.1778   -0.1639 C   0  0
    9.7432   -1.1843   -0.2896 C   0  0
    7.3905   -2.8472   -1.0363 N   0  0
    8.5350   -3.4277   -0.5019 C   0  0
    6.0034   -3.4185   -1.0230 C   0  0  2  0  0  0
    5.5956   -3.7514   -2.4737 C   0  0
   -6.5145   -2.5935   -0.2485 C   0  0
   10.6721   -0.6642   -0.9025 O   0  0
    5.0422   -2.3763   -0.4156 C   0  0
    8.6901   -0.3324    0.3253 C   0  0
    4.4527   -3.9123   -2.8760 O   0  0
   -1.8608   -2.6730    1.4118 C   0  0
    3.6927   -2.8970    0.0338 C   0  0
    6.6837   -3.8705   -3.2930 O   0  0
    1.1416   -3.7767    0.9121 C   0  0
   -1.2748   -3.9588    0.8314 C   0  0
    2.5247   -2.5331   -0.6483 C   0  0
    3.5706   -3.7144    1.1626 C   0  0
   10.8693   -3.2763    0.2799 C   0  0
    2.3075   -4.1483    1.5914 C   0  0
    1.2621   -2.9655   -0.2127 C   0  0
   -0.0195   -4.2625    1.4520 O   0  0
   -2.4211   -0.0953   -0.6888 C   0  0
    8.6206   -4.8143   -0.2992 C   0  0
   -7.1000   -3.7492    0.2895 C   0  0
   -7.2943   -1.7660   -1.0697 C   0  0
    7.9856   -0.7344    1.4668 C   0  0
    8.3788    0.8868   -0.2874 C   0  0
   10.9170   -4.6531    0.4613 C   0  0
    9.7910   -5.4187    0.1791 C   0  0
   -8.6279   -2.0834   -1.3400 C   0  0
   -8.4320   -4.0684    0.0186 C   0  0
    6.9421    0.0567    1.9550 C   0  0
    7.3466    1.6819    0.2122 C   0  0
   -9.1957   -3.2338   -0.7946 C   0  0
    6.6185    1.2578    1.3226 C   0  0
    7.4325   -1.8612   -1.2908 H   0  0
    5.9678   -4.3465   -0.4452 H   0  0
    5.5068   -1.9267    0.4686 H   0  0
    4.9009   -1.5465   -1.1213 H   0  0
   -1.1089   -1.8757    1.3902 H   0  0
   -2.0898   -2.8259    2.4738 H   0  0
    7.5018   -3.6759   -2.7767 H   0  0
   -1.9461   -4.7940    1.0662 H   0  0
   -1.2013   -3.9452   -0.2620 H   0  0
    2.5773   -1.9089   -1.5389 H   0  0
    4.4499   -4.0132    1.7289 H   0  0
   11.7492   -2.6726    0.4965 H   0  0
    2.2295   -4.7819    2.4722 H   0  0
    0.4041   -2.6418   -0.7882 H   0  0
   -1.8931   -0.4298   -1.5867 H   0  0
   -1.6769    0.2130    0.0519 H   0  0
   -3.0197    0.7830   -0.9499 H   0  0
    7.7959   -5.4773   -0.5456 H   0  0
   -6.5062   -4.4110    0.9188 H   0  0
   -6.8607   -0.8692   -1.5088 H   0  0
    8.2288   -1.6637    1.9761 H   0  0
    8.9418    1.2185   -1.1584 H   0  0
   11.8283   -5.1271    0.8169 H   0  0
    9.8304   -6.4987    0.3101 H   0  0
   -9.2195   -1.4333   -1.9785 H   0  0
   -8.8673   -4.9698    0.4410 H   0  0
    6.3563   -0.2730    2.8118 H   0  0
    7.1163    2.6310   -0.2672 H   0  0
  -10.2318   -3.4832   -1.0059 H   0  0
    5.7877    1.8559    1.6935 H   0  0
  2  1  2  0
  3  2  1  0
  3  6  1  0
  4  1  1  0
  5  9  2  0
  6  4  2  0
  7  5  1  0
  8 42  1  0
  9  8  1  0
 10  8  1  0
 10 14  1  0
 10 43  1  0
 11 10  1  0
 12  2  1  0
 13  7  2  0
 14 18  1  0
 14 44  1  0
 14 45  1  0
 15  7  1  0
 16 11  2  0
 17  4  1  0
 17 46  1  0
 17 47  1  0
 18 22  2  0
 18 23  1  0
 19 11  1  0
 19 48  1  0
 20 27  1  0
 21 17  1  0
 21 49  1  0
 21 50  1  0
 22 26  1  0
 22 51  1  0
 23 25  2  0
 23 52  1  0
 24  5  1  0
 24 34  2  0
 24 53  1  0
 25 20  1  0
 25 54  1  0
 26 20  2  0
 26 55  1  0
 27 21  1  0
 28  6  1  0
 28 56  1  0
 28 57  1  0
 28 58  1  0
 29  9  1  0
 29 59  1  0
 30 12  1  0
 30 60  1  0
 31 12  2  0
 31 61  1  0
 32 15  1  0
 32 62  1  0
 33 15  2  0
 33 63  1  0
 34 35  1  0
 34 64  1  0
 35 29  2  0
 35 65  1  0
 36 31  1  0
 36 66  1  0
 37 30  2  0
 37 67  1  0
 38 32  2  0
 38 68  1  0
 39 33  1  0
 39 69  1  0
 40 36  2  0
 40 37  1  0
 40 70  1  0
 41 38  1  0
 41 39  2  0
 41 71  1  0
M  END
> <Name>
CHEMBL107367

> <Clean Energy>
61.2813

> <chembl_id>
CHEMBL107367

> <chembl_pref_name>
FARGLITAZAR

> <efficacy>
1.192632979

> <Forcefield>
MMFF

> <ForcefieldBase>
MMFF

> <ForcefieldFFML>
<?xml version="1.0" encoding="UTF-8"?>
<!DOCTYPE ffml SYSTEM "Ffml.dtd">
<ffml version="1.0">
<forcefield name="MMFF" derivedFrom="MMFF" base="MMFF">
<atomTypes>
<atomType
name="N100"
element="N"
mass="14.007"
annotation=""/>
<atomType
name="C101"
element="C"
mass="12.011"
annotation=""/>
<atomType
name="O102"
element="O"
mass="16"
annotation=""/>
<atomType
name="H103"
element="H"
mass="1.008"
annotation=""/>
</atomTypes>
<parameters>
</parameters>
</forcefield>
</ffml>

> <Initial Potential Energy>
1791.67429

> <Initial RMS Gradient>
1206.88951

> <Minimization Criteria>
STEEPD> Minimization exiting with gradient tolerance ( 3.0000000) satisfied.

> <CHARMm Energy>
166.64561

> <Potential Energy>
166.64561

> <RMS Gradient>
0.07848

> <Bond Energy>
9.75774

> <Angle Energy>
22.96331

> <STRBend>
1.25007

> <Dihedral Energy>
12.44686

> <OOPLane>
0.32113

> <Van der Waals Energy>
78.0019

> <Electrostatic Energy>
41.90461

> <Hydrogen Bond Energy>
0

> <Solvation Free Energy>
0

> <HasGasteigerCharges>
true

> <REMARK99>
REMARK  99  MacroMolecule created from Mol2 file
REMARK  99  CHEMBL107367
REMARK  99  PROTEIN
REMARK  99  GASTEIGER
REMARK  99
REMARK  99

$$$$
CHEMBL121
  SciTegic05292516403D

 44 46  0  0  0  0            999 V2000
    9.0323   -3.1657   -1.3064 N   0  0
    9.8322   -2.8110   -0.2733 C   0  0
    7.6919   -3.3253   -1.0871 C   0  0
    8.8877   -2.6515    1.1856 S   0  0
    7.3306   -3.1997    0.3830 C   0  0  1  0  0  0
   -3.8133   -4.5976   -0.3171 C   0  0
   -4.8780   -4.0514    0.3080 N   0  0
   11.0312   -2.6074   -0.3389 O   0  0
   -2.6814   -3.7983   -0.5693 N   0  0
    6.8834   -3.5456   -1.9816 O   0  0
    6.1894   -2.1945    0.6109 C   0  0
    4.7860   -2.7764    0.5604 C   0  0
    2.0997   -3.6830    0.5608 C   0  0
    3.9539   -2.5783   -0.5515 C   0  0
    4.2652   -3.4724    1.6583 C   0  0
    2.9384   -3.9227    1.6528 C   0  0
    2.6202   -3.0257   -0.5515 C   0  0
    0.8195   -4.1454    0.7052 O   0  0
   -0.1752   -3.6695   -0.2130 C   0  0
   -1.5472   -4.1417    0.3095 C   0  0
   -3.8108   -5.9417   -0.6913 C   0  0
   -5.9349   -4.8473    0.5821 C   0  0
   -3.0277   -2.3844   -0.7097 C   0  0
   -4.9123   -6.7442   -0.4029 C   0  0
   -5.9985   -6.1881    0.2535 C   0  0
    9.4324   -3.2536   -2.2288 H   0  0
    7.0877   -4.1961    0.7667 H   0  0
    6.2878   -1.7236    1.5990 H   0  0
    6.2576   -1.3704   -0.1125 H   0  0
    4.3335   -2.0593   -1.4308 H   0  0
    4.8757   -3.6471    2.5419 H   0  0
    2.5483   -4.4469    2.5223 H   0  0
    2.0180   -2.8441   -1.4359 H   0  0
   -0.1499   -2.5751   -0.2619 H   0  0
    0.0054   -4.0902   -1.2088 H   0  0
   -1.7141   -3.7255    1.3126 H   0  0
   -1.4748   -5.2285    0.4536 H   0  0
   -2.9652   -6.3637   -1.2207 H   0  0
   -6.7549   -4.3562    1.0962 H   0  0
   -2.1707   -1.8250   -1.0985 H   0  0
   -3.3093   -1.9371    0.2507 H   0  0
   -3.8430   -2.2414   -1.4291 H   0  0
   -4.9164   -7.7908   -0.6913 H   0  0
   -6.8694   -6.7811    0.5010 H   0  0
  1 26  1  0
  2  1  1  0
  3  1  1  0
  4  2  1  0
  4  5  1  0
  5  3  1  0
  5 27  1  0
  6  9  1  0
  7  6  1  0
  8  2  2  0
  9 20  1  0
 10  3  2  0
 11  5  1  0
 11 28  1  0
 11 29  1  0
 12 11  1  0
 13 16  2  0
 13 17  1  0
 14 12  1  0
 14 30  1  0
 15 12  2  0
 15 31  1  0
 16 15  1  0
 16 32  1  0
 17 14  2  0
 17 33  1  0
 18 13  1  0
 19 18  1  0
 19 34  1  0
 19 35  1  0
 20 19  1  0
 20 36  1  0
 20 37  1  0
 21  6  2  0
 21 38  1  0
 22  7  2  0
 22 39  1  0
 23  9  1  0
 23 40  1  0
 23 41  1  0
 23 42  1  0
 24 21  1  0
 24 25  2  0
 24 43  1  0
 25 22  1  0
 25 44  1  0
M  END
> <Name>
CHEMBL121

> <Clean Energy>
25.603901

> <chembl_id>
CHEMBL121

> <chembl_pref_name>
ROSIGLITAZONE

> <efficacy>
1

> <Forcefield>
MMFF

> <ForcefieldBase>
MMFF

> <ForcefieldFFML>
<?xml version="1.0" encoding="UTF-8"?>
<!DOCTYPE ffml SYSTEM "Ffml.dtd">
<ffml version="1.0">
<forcefield name="MMFF" derivedFrom="MMFF" base="MMFF">
<atomTypes>
<atomType
name="N100"
element="N"
mass="14.007"
annotation=""/>
<atomType
name="C101"
element="C"
mass="12.011"
annotation=""/>
<atomType
name="S102"
element="S"
mass="32.066"
annotation=""/>
<atomType
name="O103"
element="O"
mass="16"
annotation=""/>
<atomType
name="H104"
element="H"
mass="1.008"
annotation=""/>
</atomTypes>
<parameters>
</parameters>
</forcefield>
</ffml>

> <Initial Potential Energy>
24.82709

> <Initial RMS Gradient>
29.91301

> <Minimization Criteria>
CONJUG> Minimization exiting with gradient tolerance ( 0.0100000) satisfied.

> <CHARMm Energy>
-30.65256

> <Potential Energy>
-30.65256

> <RMS Gradient>
0.00911

> <Bond Energy>
4.40175

> <Angle Energy>
13.87864

> <STRBend>
0.63362

> <Dihedral Energy>
15.9008

> <OOPLane>
3.47254

> <Van der Waals Energy>
43.14329

> <Electrostatic Energy>
-112.0832

> <Hydrogen Bond Energy>
0

> <Solvation Free Energy>
0

> <HasGasteigerCharges>
true

> <REMARK99>
REMARK  99  MacroMolecule created from Mol2 file
REMARK  99  CHEMBL121
REMARK  99  PROTEIN
REMARK  99  GASTEIGER
REMARK  99
REMARK  99

$$$$
CHEMBL4091374
  SciTegic05292516403D

 43 46  0  0  0  0            999 V2000
   17.8572  -11.1751    1.9921 O   0  0
   16.8584  -10.2712    1.9112 C   0  0
   16.0690  -10.4278    0.6397 C   0  0
   14.6417   -9.9021    0.7852 C   0  0
   13.8243  -10.2083   -0.4705 C   0  0
   12.3902   -9.7981   -0.3368 C   0  0
   11.3763  -10.4980    0.2938 C   0  0
   10.1418   -9.8573    0.0139 C   0  0
    8.8054  -10.1660    0.3377 C   0  0
    7.7804   -9.3593   -0.1575 C   0  0
    8.0620   -8.2670   -0.9682 C   0  0
    9.3815   -7.9414   -1.3008 C   0  0
   10.4189   -8.7388   -0.7809 C   0  0
   11.8025   -8.6626   -0.8696 N   0  0
   12.6147   -7.3649   -1.6381 S   0  0
   11.9343   -5.8801   -0.9339 C   0  0
   11.8187   -5.7671    0.4594 C   0  0
   11.2285   -4.5957    0.9673 C   0  0
   10.9157   -4.1599    2.6072 S   0  0
   10.2258   -2.6850    2.0775 C   0  0
   10.2154   -2.4800    0.7803 N   0  0
   10.7862   -3.5631    0.1348 C   0  0
   10.9461   -3.6972   -1.2595 C   0  0
   11.5209   -4.8570   -1.7885 C   0  0
   12.2098   -7.4522   -3.0280 O   0  0
   14.0029   -7.4117   -1.2263 O   0  0
    6.1452   -9.7373    0.2251 Cl  0  0
   16.6942   -9.4378    2.7851 O   0  0
   18.3303  -10.9767    2.8283 H   0  0
   16.5974   -9.8983   -0.1600 H   0  0
   16.0352  -11.4943    0.3873 H   0  0
   14.1696  -10.3640    1.6623 H   0  0
   14.6574   -8.8232    0.9815 H   0  0
   14.2898   -9.7806   -1.3632 H   0  0
   13.8406  -11.2940   -0.6410 H   0  0
   11.5034  -11.4254    0.8403 H   0  0
    8.5776  -11.0332    0.9509 H   0  0
    7.2531   -7.6553   -1.3593 H   0  0
    9.5636   -7.0982   -1.9618 H   0  0
   12.1626   -6.5473    1.1323 H   0  0
    9.8178   -1.9610    2.7741 H   0  0
   10.6133   -2.8962   -1.9132 H   0  0
   11.6240   -4.9463   -2.8696 H   0  0
  1  2  1  0
  1 29  1  0
  2  3  1  0
  2 28  2  0
  3  4  1  0
  3 30  1  0
  3 31  1  0
  4  5  1  0
  4 32  1  0
  4 33  1  0
  5  6  1  0
  5 34  1  0
  5 35  1  0
  6  7  2  0
  6 14  1  0
  7  8  1  0
  7 36  1  0
  8  9  2  0
  8 13  1  0
  9 10  1  0
  9 37  1  0
 10 11  2  0
 10 27  1  0
 11 12  1  0
 11 38  1  0
 12 13  2  0
 12 39  1  0
 13 14  1  0
 14 15  1  0
 15 16  1  0
 15 25  2  0
 15 26  2  0
 16 17  2  0
 16 24  1  0
 17 18  1  0
 17 40  1  0
 18 19  1  0
 18 22  2  0
 20 19  1  0
 20 41  1  0
 21 20  2  0
 22 21  1  0
 22 23  1  0
 23 24  2  0
 23 42  1  0
 24 43  1  0
M  END
> <Name>
CHEMBL4091374

> <Clean Energy>
144.863007

> <chembl_id>
CHEMBL4091374

> <chembl_pref_name>
LANIFIBRANOR

> <efficacy>
0.969090909

> <Forcefield>
MMFF

> <ForcefieldBase>
MMFF

> <ForcefieldFFML>
<?xml version="1.0" encoding="UTF-8"?>
<!DOCTYPE ffml SYSTEM "Ffml.dtd">
<ffml version="1.0">
<forcefield name="MMFF" derivedFrom="MMFF" base="MMFF">
<atomTypes>
<atomType
name="O100"
element="O"
mass="16"
annotation=""/>
<atomType
name="C101"
element="C"
mass="12.011"
annotation=""/>
<atomType
name="N102"
element="N"
mass="14.007"
annotation=""/>
<atomType
name="S103"
element="S"
mass="32.066"
annotation=""/>
<atomType
name="Cl104"
element="Cl"
mass="35.453"
annotation=""/>
<atomType
name="H105"
element="H"
mass="1.008"
annotation=""/>
</atomTypes>
<parameters>
</parameters>
</forcefield>
</ffml>

> <Initial Potential Energy>
324.24917

> <Initial RMS Gradient>
36.6269

> <Minimization Criteria>
CONJUG> Minimization exiting with gradient tolerance ( 0.0100000) satisfied.

> <CHARMm Energy>
91.33571

> <Potential Energy>
91.33571

> <RMS Gradient>
0.00833

> <Bond Energy>
4.78707

> <Angle Energy>
15.15183

> <STRBend>
-0.06501

> <Dihedral Energy>
-3.144

> <OOPLane>
0.058

> <Van der Waals Energy>
34.28292

> <Electrostatic Energy>
40.2649

> <Hydrogen Bond Energy>
0

> <Solvation Free Energy>
0

> <HasGasteigerCharges>
true

> <REMARK99>
REMARK  99  MacroMolecule created from Mol2 file
REMARK  99  CHEMBL4091374
REMARK  99  PROTEIN
REMARK  99  GASTEIGER
REMARK  99
REMARK  99

$$$$
CHEMBL595
  SciTegic05292516403D

 45 47  0  0  0  0            999 V2000
    8.4589    0.8542    1.1117 N   0  0
    8.5910    2.0423    0.4809 C   0  0
    7.3661    0.0792    0.8532 C   0  0
    7.2204    2.3223   -0.5561 S   0  0
    6.3289    0.8245    0.0312 C   0  0  1  0  0  0
   -3.8629   -0.8010   -0.9444 N   0  0
    9.5287    2.8102    0.5918 O   0  0
    7.2943   -1.0737    1.2574 O   0  0
    5.7978   -0.0164   -1.1306 C   0  0
   -3.0922   -0.7616    0.1699 C   0  0
   -4.9506    0.0030   -0.9807 C   0  0
    4.3784   -0.4757   -0.8748 C   0  0
    1.7279   -1.2900   -0.3703 C   0  0
   -1.8845   -1.6574    0.2048 C   0  0
   -5.3074    0.8744    0.0409 C   0  0
   -3.3841    0.0705    1.2484 C   0  0
    3.2965    0.3204   -1.2736 C   0  0
    4.1225   -1.6816   -0.2148 C   0  0
   -0.6289   -0.9354   -0.2858 C   0  0
    1.9802   -0.0850   -1.0252 C   0  0
    2.8057   -2.0852    0.0277 C   0  0
   -4.5042    0.8938    1.1812 C   0  0
    0.4921   -1.7989   -0.0734 O   0  0
   -6.5346    1.7335   -0.0653 C   0  0
   -7.7676    1.0323    0.4843 C   0  0
    9.2140    0.5112    1.6861 H   0  0
    5.5401    1.1619    0.7128 H   0  0
    5.7946    0.5461   -2.0737 H   0  0
    6.4287   -0.8951   -1.3178 H   0  0
   -5.5466   -0.0770   -1.8868 H   0  0
   -1.7299   -2.0406    1.2215 H   0  0
   -2.0617   -2.5459   -0.4144 H   0  0
   -2.7495    0.0796    2.1294 H   0  0
    3.4683    1.2640   -1.7885 H   0  0
    4.9427   -2.3184    0.1145 H   0  0
   -0.7340   -0.7071   -1.3538 H   0  0
   -0.4907   -0.0036    0.2774 H   0  0
    1.1770    0.5605   -1.3650 H   0  0
    2.6206   -3.0289    0.5355 H   0  0
   -4.7589    1.5390    2.0195 H   0  0
   -6.3736    2.6749    0.4742 H   0  0
   -6.7028    2.0103   -1.1133 H   0  0
   -8.6442    1.6814    0.3930 H   0  0
   -7.6419    0.7787    1.5424 H   0  0
   -7.9737    0.1050   -0.0611 H   0  0
  1 26  1  0
  2  1  1  0
  3  1  1  0
  4  2  1  0
  4  5  1  0
  5  3  1  0
  5 27  1  0
  6 10  1  0
  7  2  2  0
  8  3  2  0
  9  5  1  0
  9 28  1  0
  9 29  1  0
 10 14  1  0
 11  6  2  0
 11 30  1  0
 12  9  1  0
 13 20  2  0
 13 21  1  0
 14 19  1  0
 14 31  1  0
 14 32  1  0
 15 11  1  0
 15 22  2  0
 16 10  2  0
 16 33  1  0
 17 12  2  0
 17 34  1  0
 18 12  1  0
 18 35  1  0
 19 23  1  0
 19 36  1  0
 19 37  1  0
 20 17  1  0
 20 38  1  0
 21 18  2  0
 21 39  1  0
 22 16  1  0
 22 40  1  0
 23 13  1  0
 24 15  1  0
 24 41  1  0
 24 42  1  0
 25 24  1  0
 25 43  1  0
 25 44  1  0
 25 45  1  0
M  END
> <Name>
CHEMBL595

> <Clean Energy>
25.9167

> <chembl_id>
CHEMBL595

> <chembl_pref_name>
PIOGLITAZONE

> <efficacy>
0.955322907

> <Forcefield>
MMFF

> <ForcefieldBase>
MMFF

> <ForcefieldFFML>
<?xml version="1.0" encoding="UTF-8"?>
<!DOCTYPE ffml SYSTEM "Ffml.dtd">
<ffml version="1.0">
<forcefield name="MMFF" derivedFrom="MMFF" base="MMFF">
<atomTypes>
<atomType
name="N100"
element="N"
mass="14.007"
annotation=""/>
<atomType
name="C101"
element="C"
mass="12.011"
annotation=""/>
<atomType
name="S102"
element="S"
mass="32.066"
annotation=""/>
<atomType
name="O103"
element="O"
mass="16"
annotation=""/>
<atomType
name="H104"
element="H"
mass="1.008"
annotation=""/>
</atomTypes>
<parameters>
</parameters>
</forcefield>
</ffml>

> <Initial Potential Energy>
47.74413

> <Initial RMS Gradient>
29.25092

> <Minimization Criteria>
CONJUG> Minimization exiting with gradient tolerance ( 0.0100000) satisfied.

> <CHARMm Energy>
-18.70513

> <Potential Energy>
-18.70513

> <RMS Gradient>
0.00996

> <Bond Energy>
3.8138

> <Angle Energy>
10.45804

> <STRBend>
0.33398

> <Dihedral Energy>
5.21407

> <OOPLane>
0.05068

> <Van der Waals Energy>
41.4177

> <Electrostatic Energy>
-79.99341

> <Hydrogen Bond Energy>
0

> <Solvation Free Energy>
0

> <HasGasteigerCharges>
true

> <REMARK99>
REMARK  99  MacroMolecule created from Mol2 file
REMARK  99  CHEMBL595
REMARK  99  PROTEIN
REMARK  99  GASTEIGER
REMARK  99
REMARK  99

$$$$
